Input file: data/Uspanteko/source_data/14.final
Output file: data/Uspanteko/st_data/14.txt
Skipping example {none}: missing fields
Skipping example trtex014Usp04 001: missing fields
Skipping example trtex014Usp04 003: inaudible token
Skipping example trtex014Usp04 008: inaudible token
Skipping example trtex014Usp04 052: inaudible token
Skipping example trtex014Usp04 118: inaudible token
Skipping example trtex014Usp04 126: inaudible token
Skipping example trtex014Usp04 334: inaudible token
Skipping example trtex014Usp04 344: inaudible token
Skipping example trtex014Usp04 382: missing fields
Got 377 glossed sentences
Filtered out 10 sentences

Input file: data/Uspanteko/source_data/22.final
Output file: data/Uspanteko/st_data/22.txt
Skipping example {none}: missing fields
Skipping example trtex022Usp04 001a: missing fields
Skipping example trtex022Usp04 553: missing fields
Skipping example trtex022Usp04 567: inaudible token
Skipping example trtex022Usp04 608: inaudible token
Skipping example trtex022Usp04 723: inaudible token
Skipping example trtex022Usp04 787: inaudible token
Skipping example trtex022Usp04 815: inaudible token
Skipping example trtex022Usp04 830: inaudible token
Got 853 glossed sentences
Filtered out 9 sentences

Input file: data/Uspanteko/source_data/29.final
Output file: data/Uspanteko/st_data/29.txt
Skipping example {none}: missing fields
Skipping example trtex020Usp04 001: missing fields
Skipping example trtex020Usp04 003: inaudible token
Skipping example trtex020Usp04 005: inaudible token
Skipping example trtex020Usp04 045: inaudible token
Skipping example trtex020Usp04 070: inaudible token
Skipping example trtex020Usp04 072: inaudible token
Skipping example trtex020Usp04 079: inaudible token
Skipping example trtex020Usp04 084: inaudible token
Skipping example trtex020Usp04 115: inaudible token
Skipping example trtex020Usp04 121: inaudible token
Skipping example trtex020Usp04 134: inaudible token
Skipping example trtex020Usp04 154: inaudible token
Skipping example trtex020Usp04 155: inaudible token
Skipping example trtex020Usp04 157: inaudible token
Skipping example trtex020Usp04 158: inaudible token
Skipping example trtex020Usp04 181: inaudible token
Skipping example trtex020Usp04 183: inaudible token
Skipping example trtex020Usp04 208: inaudible token
Skipping example trtex020Usp04 223: inaudible token
Skipping example trtex020Usp04 231: inaudible token
Skipping example trtex020Usp04 256: inaudible token
Skipping example trtex020Usp04 284: inaudible token
Skipping example trtex020Usp04 286: inaudible token
Skipping example trtex020Usp04 297: inaudible token
Skipping example trtex020Usp04 299: inaudible token
Skipping example trtex020Usp04 353: inaudible token
Skipping example trtex020Usp04 363: inaudible token
Skipping example trtex020Usp04 374: inaudible token
Skipping example trtex020Usp04 381: inaudible token
Skipping example trtex020Usp04 407: inaudible token
Skipping example trtex020Usp04 411: inaudible token
Skipping example trtex020Usp04 412: inaudible token
Skipping example trtex020Usp04 413: inaudible token
Skipping example trtex020Usp04 419: inaudible token
Skipping example trtex020Usp04 429: inaudible token
Skipping example trtex020Usp04 453: inaudible token
Skipping example trtex020Usp04 458: inaudible token
Skipping example trtex020Usp04 463: inaudible token
Skipping example trtex020Usp04 473: inaudible token
Skipping example trtex020Usp04 482: inaudible token
Skipping example trtex020Usp04 494: inaudible token
Skipping example trtex020Usp04 512: inaudible token
Skipping example trtex020Usp04 527: inaudible token
Skipping example trtex020Usp04 535: inaudible token
Skipping example trtex020Usp04 536: inaudible token
Skipping example trtex020Usp04 586: inaudible token
Skipping example trtex020Usp04 592: inaudible token
Skipping example trtex020Usp04 623: inaudible token
Skipping example trtex020Usp04 629: inaudible token
Skipping example trtex020Usp04 640: inaudible token
Skipping example trtex020Usp04 649: inaudible token
Skipping example trtex020Usp04 661: missing fields
Skipping example trtex020Usp04 665: missing fields
Skipping example trtex020Usp04 666: missing fields
Skipping example trtex020Usp04 667: missing fields
Skipping example trtex020Usp04 668: missing fields
Skipping example trtex020Usp04 669: missing fields
Got 612 glossed sentences
Filtered out 58 sentences

Input file: data/Uspanteko/source_data/36.final
Output file: data/Uspanteko/st_data/36.txt
Skipping example {none}: missing fields
Skipping example trtex036Usp04 001: missing fields
Skipping example trtex036Usp04 002: inaudible token
Skipping example trtex036Usp04 008: inaudible token
Skipping example trtex036Usp04 016: inaudible token
Skipping example trtex036Usp04 053: inaudible token
Skipping example trtex036Usp04 057: inaudible token
Skipping example trtex036Usp04 059: inaudible token
Skipping example trtex036Usp04 069: inaudible token
Skipping example trtex036Usp04 097: missing fields
Skipping example trtex036Usp04 108: inaudible token
Skipping example trtex036Usp04 127: inaudible token
Got 137 glossed sentences
Filtered out 12 sentences

Input file: data/Uspanteko/source_data/49.final
Output file: data/Uspanteko/st_data/49.txt
Skipping example {none}: missing fields
Skipping example trtex049Usp04 001: missing fields
Skipping example trtex049Usp04 008: inaudible token
Skipping example trtex049Usp04 013: inaudible token
Skipping example trtex049Usp04 015: inaudible token
Skipping example trtex049Usp04 022: inaudible token
Skipping example trtex049Usp04 056: inaudible token
Skipping example trtex049Usp04 059: inaudible token
Skipping example trtex049Usp04 064: inaudible token
Skipping example trtex049Usp04 084: inaudible token
Skipping example trtex049Usp04 132: inaudible token
Skipping example trtex049Usp04 134: inaudible token
Skipping example trtex049Usp04 136: inaudible token
Skipping example trtex049Usp04 139: inaudible token
Skipping example trtex049Usp04 140: inaudible token
Skipping example trtex049Usp04 143: inaudible token
Skipping example trtex049Usp04 158: inaudible token
Skipping example trtex049Usp04 189: inaudible token
Skipping example trtex049Usp04 230: inaudible token
Skipping example trtex049Usp04 233: inaudible token
Skipping example trtex049Usp04 235: inaudible token
Skipping example trtex049Usp04 236: inaudible token
Skipping example trtex049Usp04 243: inaudible token
Skipping example trtex049Usp04 250: inaudible token
Skipping example trtex049Usp04 251: inaudible token
Skipping example trtex049Usp04 255: missing fields
Got 230 glossed sentences
Filtered out 26 sentences

Input file: data/Uspanteko/source_data/54.final
Output file: data/Uspanteko/st_data/54.txt
Skipping example {none}: missing fields
Skipping example trtex054Usp04 001: missing fields
Skipping example trtex054Usp04 016: inaudible token
Skipping example trtex054Usp04 022: inaudible token
Skipping example trtex054Usp04 033: inaudible token
Skipping example trtex054Usp04 046: inaudible token
Skipping example trtex054Usp04 057: inaudible token
Skipping example trtex054Usp04 088: inaudible token
Skipping example trtex054Usp04 099: inaudible token
Skipping example trtex054Usp04 101: inaudible token
Skipping example trtex054Usp04 136: inaudible token
Skipping example trtex054Usp04 149: inaudible token
Skipping example trtex054Usp04 165: inaudible token
Skipping example trtex054Usp04 167: inaudible token
Skipping example trtex054Usp04 203: inaudible token
Skipping example trtex054Usp04 213: inaudible token
Skipping example trtex054Usp04 218: inaudible token
Skipping example trtex054Usp04 240: inaudible token
Skipping example trtex054Usp04 280: inaudible token
Skipping example trtex054Usp04 330: inaudible token
Skipping example trtex054Usp04 332: missing fields
Got 312 glossed sentences
Filtered out 21 sentences

Input file: data/Uspanteko/source_data/57.final
Output file: data/Uspanteko/st_data/57.txt
Skipping example {none}: missing fields
Skipping example trtex057Usp04 040: inaudible token
Skipping example trtex057Usp04 047: inaudible token
Skipping example trtex057Usp04 048: inaudible token
Skipping example trtex057Usp04 056: inaudible token
Skipping example trtex057Usp04 100: inaudible token
Skipping example trtex057Usp04 104: inaudible token
Skipping example trtex057Usp04 107: inaudible token
Skipping example trtex057Usp04 127: inaudible token
Skipping example trtex057Usp04 140: inaudible token
Skipping example trtex057Usp04 142: inaudible token
Skipping example trtex057Usp04 145: inaudible token
Skipping example trtex057Usp04 156: inaudible token
Skipping example trtex057Usp04 163: inaudible token
Skipping example trtex057Usp04 178: inaudible token
Skipping example trtex057Usp04 197: inaudible token
Skipping example trtex057Usp04 209: missing fields
Got 194 glossed sentences
Filtered out 17 sentences

Input file: data/Uspanteko/source_data/68.final
Output file: data/Uspanteko/st_data/68.txt
Skipping example {none}: missing fields
Skipping example trtex068Usp04 001: missing fields
Skipping example trtex068Usp04 026: inaudible token
Skipping example trtex068Usp04 037: inaudible token
Skipping example trtex068Usp04 080: inaudible token
Skipping example trtex068Usp04 081: inaudible token
Skipping example trtex068Usp04 110: inaudible token
Skipping example trtex068Usp04 151: inaudible token
Skipping example trtex068Usp04 208: inaudible token
Skipping example trtex068Usp04 242: inaudible token
Skipping example trtex068Usp04 247: inaudible token
Skipping example trtex068Usp04 279: inaudible token
Skipping example trtex068Usp04 295: inaudible token
Skipping example trtex068Usp04 327: inaudible token
Skipping example trtex068Usp04 351: inaudible token
Skipping example trtex068Usp04 373: inaudible token
Skipping example trtex068Usp04 374: inaudible token
Skipping example trtex068Usp04 382: inaudible token
Skipping example trtex068Usp04 383: inaudible token
Skipping example trtex068Usp04 416: inaudible token
Skipping example trtex068Usp04 517: inaudible token
Skipping example trtex068Usp04 553: inaudible token
Skipping example trtex068Usp04 572: missing fields
Got 553 glossed sentences
Filtered out 23 sentences

Input file: data/Uspanteko/source_data/16.final
Output file: data/Uspanteko/st_data/16.txt
Skipping example {none}: missing fields
Skipping example trtex016Usp03 002: inaudible token
Skipping example trtex016Usp03 012: inaudible token
Skipping example trtex016Usp03 055: inaudible token
Skipping example trtex016Usp03 057: inaudible token
Skipping example trtex016Usp03 061: inaudible token
Skipping example trtex016Usp03 063: inaudible token
Skipping example trtex016Usp03 065: inaudible token
Skipping example trtex016Usp03 073: inaudible token
Skipping example trtex016Usp03 094: inaudible token
Skipping example trtex016Usp03 100: inaudible token
Skipping example trtex016Usp03 112: inaudible token
Skipping example trtex016Usp03 117: (ta-baber) and ??? morpheme counts don't match
Skipping example trtex016Usp03 135: inaudible token
Skipping example trtex016Usp03 143: inaudible token
Skipping example trtex016Usp03 154: missing fields
Skipping example trtex016Usp03 165: inaudible token
Skipping example trtex016Usp03 210: inaudible token
Skipping example trtex016Usp03 225: inaudible token
Skipping example trtex016Usp03 240: inaudible token
Skipping example trtex016Usp03 315: missing fields
Got 295 glossed sentences
Filtered out 21 sentences

Input file: data/Uspanteko/source_data/23.final
Output file: data/Uspanteko/st_data/23.txt
Skipping example {none}: missing fields
Skipping example trtex023Usp04 001: missing fields
Got 872 glossed sentences
Filtered out 2 sentences

Input file: data/Uspanteko/source_data/30.final
Output file: data/Uspanteko/st_data/30.txt
Skipping example {none}: missing fields
Skipping example trtex030Usp04 001: missing fields
Skipping example trtex030Usp04 072: inaudible token
Skipping example trtex030Usp04 095: inaudible token
Skipping example trtex030Usp04 114: inaudible token
Skipping example trtex030Usp04 152: inaudible token
Skipping example trtex030Usp04 192: inaudible token
Skipping example trtex030Usp04 219: inaudible token
Skipping example trtex030Usp04 222: inaudible token
Skipping example trtex030Usp04 249: inaudible token
Skipping example trtex030Usp04 250: inaudible token
Skipping example trtex030Usp04 286: inaudible token
Skipping example trtex030Usp04 322: missing fields
Got 312 glossed sentences
Filtered out 13 sentences

Input file: data/Uspanteko/source_data/37.final
Output file: data/Uspanteko/st_data/37.txt
Skipping example {none}: missing fields
Skipping example trtex037Usp04 001: missing fields
Skipping example trtex037Usp04 003: inaudible token
Skipping example trtex037Usp04 006: inaudible token
Skipping example trtex037Usp04 032: inaudible token
Skipping example trtex037Usp04 072: inaudible token
Skipping example trtex037Usp04 085: inaudible token
Skipping example trtex037Usp04 087: inaudible token
Skipping example trtex037Usp04 090: inaudible token
Skipping example trtex037Usp04 101: inaudible token
Skipping example trtex037Usp04 162: inaudible token
Skipping example trtex037Usp04 170: inaudible token
Skipping example trtex037Usp04 178: inaudible token
Skipping example trtex037Usp04 203: inaudible token
Skipping example trtex037Usp04 265: inaudible token
Skipping example trtex037Usp04 269: inaudible token
Skipping example trtex037Usp04 308: inaudible token
Skipping example trtex037Usp04 309: inaudible token
Skipping example trtex037Usp04 366: inaudible token
Skipping example trtex037Usp04 375: inaudible token
Skipping example trtex037Usp04 382: inaudible token
Skipping example trtex037Usp04 409: inaudible token
Skipping example trtex037Usp04 433: inaudible token
Skipping example trtex037Usp04 438: inaudible token
Skipping example trtex037Usp04 444: inaudible token
Skipping example trtex037Usp04 461: missing fields
Got 436 glossed sentences
Filtered out 26 sentences

Input file: data/Uspanteko/source_data/50.final
Output file: data/Uspanteko/st_data/50.txt
Skipping example {none}: missing fields
Skipping example trtex050Usp04 001: missing fields
Skipping example trtex050Usp04 003: inaudible token
Skipping example trtex050Usp04 005: inaudible token
Skipping example trtex050Usp04 008: inaudible token
Skipping example trtex050Usp04 020: inaudible token
Skipping example trtex050Usp04 021: inaudible token
Skipping example trtex050Usp04 024: inaudible token
Skipping example trtex050Usp04 037: inaudible token
Skipping example trtex050Usp04 040: inaudible token
Skipping example trtex050Usp04 048: inaudible token
Skipping example trtex050Usp04 050: inaudible token
Skipping example trtex050Usp04 054: inaudible token
Skipping example trtex050Usp04 058: inaudible token
Skipping example trtex050Usp04 062: inaudible token
Skipping example trtex050Usp04 063: inaudible token
Skipping example trtex050Usp04 066: inaudible token
Skipping example trtex050Usp04 069: inaudible token
Skipping example trtex050Usp04 070: inaudible token
Skipping example trtex050Usp04 079: inaudible token
Skipping example trtex050Usp04 092: inaudible token
Skipping example trtex050Usp04 097: missing fields
Got 76 glossed sentences
Filtered out 22 sentences

Input file: data/Uspanteko/source_data/55.final
Output file: data/Uspanteko/st_data/55.txt
Skipping example {none}: missing fields
Skipping example trtex055Usp04 001: missing fields
Skipping example trtex055Usp04 048: inaudible token
Skipping example trtex055Usp04 081: inaudible token
Skipping example trtex055Usp04 090: inaudible token
Skipping example trtex055Usp04 096: inaudible token
Skipping example trtex055Usp04 113: inaudible token
Skipping example trtex055Usp04 126: inaudible token
Skipping example trtex055Usp04 136: inaudible token
Skipping example trtex055Usp04 171: inaudible token
Skipping example trtex055Usp04 173: inaudible token
Skipping example trtex055Usp04 178: inaudible token
Skipping example trtex055Usp04 179: missing fields
Got 168 glossed sentences
Filtered out 13 sentences

Input file: data/Uspanteko/source_data/59.final
Output file: data/Uspanteko/st_data/59.txt
Skipping example {none}: missing fields
Skipping example trtex059Usp04 001: missing fields
Skipping example trtex059Usp04 003: inaudible token
Skipping example trtex059Usp04 006: inaudible token
Skipping example trtex059Usp04 045: inaudible token
Skipping example trtex059Usp04 066: inaudible token
Skipping example trtex059Usp04 073: inaudible token
Skipping example trtex059Usp04 080: inaudible token
Skipping example trtex059Usp04 086: inaudible token
Skipping example trtex059Usp04 103: inaudible token
Skipping example trtex059Usp04 118: inaudible token
Skipping example trtex059Usp04 139: inaudible token
Skipping example trtex059Usp04 140: inaudible token
Skipping example trtex059Usp04 141: inaudible token
Skipping example trtex059Usp04 146: inaudible token
Skipping example trtex059Usp04 155: inaudible token
Skipping example trtex059Usp04 163: inaudible token
Skipping example trtex059Usp04 171: inaudible token
Skipping example trtex059Usp04 176: inaudible token
Skipping example trtex059Usp04 194: inaudible token
Skipping example trtex059Usp04 204: inaudible token
Skipping example trtex059Usp04 207: inaudible token
Skipping example trtex059Usp04 208: inaudible token
Skipping example trtex059Usp04 214: inaudible token
Skipping example trtex059Usp04 222: inaudible token
Skipping example trtex059Usp04 224: inaudible token
Skipping example trtex059Usp04 229: inaudible token
Skipping example trtex059Usp04 231: inaudible token
Skipping example trtex059Usp04 239: inaudible token
Skipping example trtex059Usp04 259: inaudible token
Skipping example trtex059Usp04 279: inaudible token
Skipping example trtex059Usp04 292: inaudible token
Skipping example trtex059Usp04 298: inaudible token
Skipping example trtex059Usp04 308: missing fields
Skipping example trtex059Usp04 316: inaudible token
Skipping example trtex059Usp04 328: inaudible token
Skipping example trtex059Usp04 344: inaudible token
Skipping example trtex059Usp04 386: inaudible token
Skipping example trtex059Usp04 391: inaudible token
Skipping example trtex059Usp04 428: inaudible token
Skipping example trtex059Usp04 433: inaudible token
Skipping example trtex059Usp04 435: inaudible token
Skipping example trtex059Usp04 438: inaudible token
Skipping example trtex059Usp04 441: inaudible token
Skipping example trtex059Usp04 460: inaudible token
Skipping example trtex059Usp04 469: missing fields
Got 424 glossed sentences
Filtered out 46 sentences

Input file: data/Uspanteko/source_data/8.final
Output file: data/Uspanteko/st_data/8.txt
Skipping example {none}: missing fields
Skipping example trtexUsp00804a 001: inaudible token
Skipping example trtexUsp00804a 005: inaudible token
Skipping example trtexUsp00804a 006: inaudible token
Skipping example trtexUsp00804a 015: inaudible token
Skipping example trtexUsp00804a 019: inaudible token
Skipping example trtexUsp00804a 024: inaudible token
Skipping example trtexUsp00804a 051: inaudible token
Skipping example trtexUsp00804a 080: Empty translation
Skipping example trtexUsp00804a 085: inaudible token
Skipping example trtexUsp00804a 092: Empty translation
Skipping example trtexUsp00804a 140: inaudible token
Skipping example trtexUsp00804a 151: inaudible token
Skipping example trtexUsp00804a 167: inaudible token
Skipping example trtexUsp00804a 212: inaudible token
Skipping example trtexUsp00804a 265: inaudible token
Skipping example trtexUsp00804a 280: inaudible token
Skipping example trtexUsp00804a 331: inaudible token
Skipping example trtexUsp00804a 347: Empty translation
Skipping example trtexUsp00804a 349: inaudible token
Skipping example trtexUsp00804a 356: inaudible token
Skipping example trtexUsp00804a 358: inaudible token
Skipping example trtexUsp00804a 382: inaudible token
Skipping example trtexUsp00804a 386: inaudible token
Skipping example trtexUsp00804a 398: inaudible token
Skipping example trtexUsp00804a 402: Empty translation
Skipping example trtexUsp00804a 413: Empty translation
Skipping example trtexUsp00804a 414: inaudible token
Skipping example trtexUsp00804a 415: inaudible token
Skipping example trtexUsp00804a 421: inaudible token
Skipping example trtexUsp00804a 446: inaudible token
Skipping example trtexUsp00804a 447: inaudible token
Skipping example trtexUsp00804a 462: inaudible token
Skipping example trtexUsp00804a 475: Empty translation
Skipping example trtexUsp00804a 487: inaudible token
Skipping example trtexUsp00804a 490: inaudible token
Skipping example trtexUsp00804a 496: inaudible token
Skipping example trtexUsp00804a 505: inaudible token
Skipping example trtexUsp00804a 508: inaudible token
Skipping example trtexUsp00804a 512: Empty translation
Skipping example trtexUsp00804a 526: inaudible token
Skipping example trtexUsp00804a 532: Empty translation
Skipping example trtexUsp00804a 535: inaudible token
Skipping example trtexUsp00804a 538: inaudible token
Skipping example trtexUsp00804a 549: inaudible token
Skipping example trtexUsp00804a 551: inaudible token
Skipping example trtexUsp00804a 564: inaudible token
Skipping example trtexUsp00804a 570: inaudible token
Skipping example trtexUsp00804a 578: inaudible token
Skipping example trtexUsp00804a 588: inaudible token
Got 542 glossed sentences
Filtered out 50 sentences

Input file: data/Uspanteko/source_data/20.final
Output file: data/Uspanteko/st_data/20.txt
Skipping example {none}: missing fields
Skipping example trtex020Usp04 001: missing fields
Skipping example trtex020Usp04 003: inaudible token
Skipping example trtex020Usp04 005: inaudible token
Skipping example trtex020Usp04 045: inaudible token
Skipping example trtex020Usp04 070: inaudible token
Skipping example trtex020Usp04 072: inaudible token
Skipping example trtex020Usp04 079: inaudible token
Skipping example trtex020Usp04 084: inaudible token
Skipping example trtex020Usp04 115: inaudible token
Skipping example trtex020Usp04 121: inaudible token
Skipping example trtex020Usp04 134: inaudible token
Skipping example trtex020Usp04 154: inaudible token
Skipping example trtex020Usp04 155: inaudible token
Skipping example trtex020Usp04 157: inaudible token
Skipping example trtex020Usp04 158: inaudible token
Skipping example trtex020Usp04 181: inaudible token
Skipping example trtex020Usp04 183: inaudible token
Skipping example trtex020Usp04 208: inaudible token
Skipping example trtex020Usp04 223: inaudible token
Skipping example trtex020Usp04 231: inaudible token
Skipping example trtex020Usp04 256: inaudible token
Skipping example trtex020Usp04 284: inaudible token
Skipping example trtex020Usp04 286: inaudible token
Skipping example trtex020Usp04 297: inaudible token
Skipping example trtex020Usp04 299: inaudible token
Skipping example trtex020Usp04 353: inaudible token
Skipping example trtex020Usp04 363: inaudible token
Skipping example trtex020Usp04 374: inaudible token
Skipping example trtex020Usp04 381: inaudible token
Skipping example trtex020Usp04 407: inaudible token
Skipping example trtex020Usp04 411: inaudible token
Skipping example trtex020Usp04 412: inaudible token
Skipping example trtex020Usp04 413: inaudible token
Skipping example trtex020Usp04 419: inaudible token
Skipping example trtex020Usp04 429: inaudible token
Skipping example trtex020Usp04 453: inaudible token
Skipping example trtex020Usp04 458: inaudible token
Skipping example trtex020Usp04 463: inaudible token
Skipping example trtex020Usp04 473: inaudible token
Skipping example trtex020Usp04 482: inaudible token
Skipping example trtex020Usp04 494: inaudible token
Skipping example trtex020Usp04 512: inaudible token
Skipping example trtex020Usp04 527: inaudible token
Skipping example trtex020Usp04 535: inaudible token
Skipping example trtex020Usp04 536: inaudible token
Skipping example trtex020Usp04 586: inaudible token
Skipping example trtex020Usp04 592: inaudible token
Skipping example trtex020Usp04 623: inaudible token
Skipping example trtex020Usp04 629: inaudible token
Skipping example trtex020Usp04 640: inaudible token
Skipping example trtex020Usp04 649: inaudible token
Skipping example trtex020Usp04 661: missing fields
Skipping example trtex020Usp04 665: missing fields
Skipping example trtex020Usp04 666: missing fields
Skipping example trtex020Usp04 667: missing fields
Skipping example trtex020Usp04 668: missing fields
Skipping example trtex020Usp04 669: missing fields
Got 612 glossed sentences
Filtered out 58 sentences

Input file: data/Uspanteko/source_data/25.final
Output file: data/Uspanteko/st_data/25.txt
Skipping example {none}: missing fields
Skipping example trtex025Usp04 001: missing fields
Skipping example trtex025Usp04 004: inaudible token
Skipping example trtex025Usp04 014b: missing fields
Skipping example trtex025Usp04 020: inaudible token
Skipping example trtex025Usp04 026b: Empty translation
Skipping example trtex025Usp04 042: inaudible token
Skipping example trtex025Usp04 088: inaudible token
Skipping example trtex025Usp04 091: inaudible token
Skipping example trtex025Usp04 111: inaudible token
Skipping example trtex025Usp04 122: inaudible token
Skipping example trtex025Usp04 172a: inaudible token
Skipping example trtex025Usp04 183: inaudible token
Skipping example trtex025Usp04 188: inaudible token
Skipping example trtex025Usp04 201: inaudible token
Skipping example trtex025Usp04 274: inaudible token
Skipping example trtex025Usp04 292: inaudible token
Skipping example trtex025Usp04 297: inaudible token
Skipping example trtex025Usp04 310: inaudible token
Skipping example trtex025Usp04 314: missing fields
Skipping example trtex025Usp04 317: inaudible token
Skipping example trtex025Usp04 353: inaudible token
Skipping example trtex025Usp04 369: missing fields
Skipping example trtex025Usp04 388: inaudible token
Skipping example trtex025Usp04 391: inaudible token
Skipping example trtex025Usp04 433: inaudible token
Skipping example trtex025Usp04 465: inaudible token
Skipping example trtex025Usp04 471: inaudible token
Skipping example trtex025Usp04 534: inaudible token
Skipping example trtex025Usp04 606: inaudible token
Skipping example trtex025Usp04 612: inaudible token
Skipping example trtex025Usp04 617: inaudible token
Skipping example trtex025Usp04 620: inaudible token
Skipping example trtex025Usp04 629: inaudible token
Skipping example trtex025Usp04 652: inaudible token
Skipping example trtex025Usp04 666: inaudible token
Skipping example trtex025Usp04 684: Empty translation
Skipping example trtex025Usp04 692: inaudible token
Skipping example trtex025Usp04 705: inaudible token
Skipping example trtex025Usp04 798: inaudible token
Skipping example trtex025Usp04 799: inaudible token
Skipping example trtex025Usp04 843: inaudible token
Skipping example trtex025Usp04 852: inaudible token
Skipping example trtex025Usp04 857: inaudible token
Skipping example trtex025Usp04 874: inaudible token
Skipping example trtex025Usp04 881: inaudible token
Skipping example trtex025Usp04 883: inaudible token
Skipping example trtex025Usp04 896: inaudible token
Skipping example trtex025Usp04 903: inaudible token
Skipping example trtex025Usp04 907: inaudible token
Skipping example trtex025Usp04 958: inaudible token
Skipping example trtex025Usp04 980: inaudible token
Skipping example trtex025Usp04 998: inaudible token
Skipping example trtex025Usp04 1010: inaudible token
Skipping example trtex025Usp04 1012a: inaudible token
Skipping example trtex025Usp04 1013: inaudible token
Skipping example trtex025Usp04 1019: missing fields
Got 981 glossed sentences
Filtered out 57 sentences

Input file: data/Uspanteko/source_data/35.final
Output file: data/Uspanteko/st_data/35.txt
Skipping example {none}: missing fields
Skipping example trtex035Usp04 004: inaudible token
Skipping example trtex035Usp04 013: inaudible token
Skipping example trtex035Usp04 020: inaudible token
Skipping example trtex035Usp04 025: inaudible token
Skipping example trtex035Usp04 048: inaudible token
Skipping example trtex035Usp04 057: inaudible token
Skipping example trtex035Usp04 102: inaudible token
Skipping example trtex035Usp04 111: inaudible token
Skipping example trtex035Usp04 138: inaudible token
Skipping example trtex035Usp04 166: inaudible token
Skipping example trtex035Usp04 215: inaudible token
Skipping example trtex035Usp04 219: inaudible token
Skipping example trtex035Usp04 233: inaudible token
Skipping example trtex035Usp04 295: missing fields
Skipping example trtex035Usp04 372: inaudible token
Skipping example trtex035Usp04 420: MOR, POS, GLS and TXT lengths don't match
Skipping example trtex035Usp04 440: missing fields
Skipping example trtex035Usp04 487: inaudible token
Skipping example trtex035Usp04 518: missing fields
Skipping example trtex035Usp04 525: inaudible token
Skipping example trtex035Usp04 588: missing fields
Got 568 glossed sentences
Filtered out 22 sentences

Input file: data/Uspanteko/source_data/4.final
Output file: data/Uspanteko/st_data/4.txt
Skipping example {none}: missing fields
Skipping example trtex004Usp03 012: inaudible token
Skipping example trtex004Usp03 026: missing fields
Skipping example trtex004Usp03 028: missing fields
Skipping example trtex004Usp03 048: missing fields
Skipping example trtex004Usp03 055: missing fields
Skipping example trtex004Usp03 066: missing fields
Skipping example trtex004Usp03 080: inaudible token
Skipping example trtex004Usp03 082: missing fields
Skipping example trtex004Usp03 099: missing fields
Skipping example trtex004Usp03 100: missing fields
Skipping example trtex004Usp03 102: MOR, POS, GLS and TXT lengths don't match
Skipping example trtex004Usp03 113: inaudible token
Skipping example trtex004Usp03 126: inaudible token
Skipping example trtex004Usp03 148: missing fields
Skipping example trtex004Usp03 149: missing fields
Skipping example trtex004Usp03 160: inaudible token
Skipping example trtex004Usp03 163: inaudible token
Skipping example trtex004Usp03 164: inaudible token
Skipping example trtex004Usp03 171: inaudible token
Skipping example trtex004Usp03 190: inaudible token
Skipping example trtex004Usp03 192: inaudible token
Skipping example trtex004Usp03 204: inaudible token
Skipping example trtex004Usp03 221: missing fields
Skipping example trtex004Usp03 231a: inaudible token
Skipping example trtex004Usp03 236: missing fields
Skipping example trtex004Usp03 237: inaudible token
Skipping example trtex004Usp03 239: missing fields
Skipping example trtex004Usp03 240: missing fields
Skipping example trtex004Usp03 241: inaudible token
Skipping example trtex004Usp03 242: inaudible token
Skipping example trtex004Usp03 248: missing fields
Skipping example trtex004Usp03 254: missing fields
Skipping example trtex004Usp03 258: missing fields
Skipping example trtex004Usp03 264: inaudible token
Skipping example trtex004Usp03 293: missing fields
Skipping example trtex004Usp03 315: inaudible token
Skipping example trtex004Usp03 341: inaudible token
Skipping example trtex004Usp03 352: missing fields
Skipping example trtex004Usp03 367: missing fields
Skipping example trtex004Usp03 381: inaudible token
Skipping example trtex004Usp03 382: inaudible token
Skipping example trtex004Usp03 383: missing fields
Skipping example trtex004Usp03 392: missing fields
Skipping example trtex004Usp03 397: missing fields
Skipping example trtex004Usp03 398: missing fields
Skipping example trtex004Usp03 406: MOR, POS, GLS and TXT lengths don't match
Skipping example trtex004Usp03 410: inaudible token
Skipping example trtex004Usp03 429: missing fields
Skipping example trtex004Usp03 431: inaudible token
Skipping example trtex004Usp03 432: missing fields
Skipping example trtex004Usp03 438: missing fields
Skipping example trtex004Usp03 439a: missing fields
Skipping example trtex004Usp03 446: missing fields
Skipping example trtex004Usp03 462: inaudible token
Skipping example trtex004Usp03 468a: inaudible token
Skipping example trtex004Usp03 468b: inaudible token
Skipping example trtex004Usp03 493: MOR, POS, GLS and TXT lengths don't match
Skipping example trtex004Usp03 494: inaudible token
Skipping example trtex004Usp03 500a: inaudible token
Skipping example trtex004Usp03 500b: inaudible token
Skipping example trtex004Usp03 506: missing fields
Skipping example trtex004Usp03 507: inaudible token
Skipping example trtex004Usp03 508: inaudible token
Skipping example trtex004Usp03 510: inaudible token
Skipping example trtex004Usp03 511: missing fields
Skipping example trtex004Usp03 524: missing fields
Skipping example trtex004Usp03 528: inaudible token
Skipping example trtex004Usp03 544a: inaudible token
Skipping example trtex004Usp03 544b: inaudible token
Skipping example trtex004Usp03 546: inaudible token
Skipping example trtex004Usp03 547: inaudible token
Skipping example trtex004Usp03 550: inaudible token
Skipping example trtex004Usp03 552a: inaudible token
Skipping example trtex004Usp03 552b: inaudible token
Skipping example trtex004Usp03 552c: Empty translation
Skipping example trtex004Usp03 564: missing fields
Skipping example trtex004Usp03 565: Empty translation
Skipping example trtex004Usp03 570: inaudible token
Skipping example trtex004Usp03 581a: inaudible token
Skipping example trtex004Usp03 590a: inaudible token
Skipping example trtex004Usp03 590b: missing fields
Skipping example trtex004Usp03 599: missing fields
Skipping example trtex004Usp03 601: missing fields
Skipping example trtex004Usp03 611: MOR, POS, GLS and TXT lengths don't match
Skipping example trtex004Usp03 613: inaudible token
Skipping example trtex004Usp03 634: inaudible token
Skipping example trtex004Usp03 638: inaudible token
Skipping example trtex004Usp03 639: inaudible token
Skipping example trtex004Usp03 640: missing fields
Skipping example trtex004Usp03 642: missing fields
Skipping example trtex004Usp03 643: missing fields
Skipping example trtex004Usp03 644: missing fields
Skipping example trtex004Usp03 658: inaudible token
Skipping example trtex004Usp03 660: inaudible token
Skipping example trtex004Usp03 664: missing fields
Skipping example trtex004Usp03 673: inaudible token
Skipping example trtex004Usp03 674: inaudible token
Skipping example trtex004Usp03 675: missing fields
Skipping example trtex004Usp03 690: inaudible token
Skipping example trtex004Usp03 708a: inaudible token
Skipping example trtex004Usp03 710: inaudible token
Skipping example trtex004Usp03 730: missing fields
Skipping example trtex004Usp03 743: inaudible token
Skipping example trtex004Usp03 755: missing fields
Skipping example trtex004Usp03 761: MOR, POS, GLS and TXT lengths don't match
Skipping example trtex004Usp03 762: inaudible token
Skipping example trtex004Usp03 763: inaudible token
Skipping example trtex004Usp03 770: inaudible token
Skipping example trtex004Usp03 771: missing fields
Skipping example trtex004Usp03 782: inaudible token
Skipping example trtex004Usp03 783: MOR, POS, GLS and TXT lengths don't match
Skipping example trtex004Usp03 786: inaudible token
Skipping example trtex004Usp03 797: missing fields
Skipping example trtex004Usp03 827: missing fields
Skipping example trtex004Usp03 829: missing fields
Skipping example trtex004Usp03 831: missing fields
Skipping example trtex004Usp03 862: missing fields
Skipping example trtex004Usp03 871: inaudible token
Skipping example trtex004Usp03 874: missing fields
Skipping example trtex004Usp03 880a: missing fields
Skipping example trtex004Usp03 885: Empty translation
Skipping example trtex004Usp03 886: Empty translation
Skipping example trtex004Usp03 900: missing fields
Skipping example trtex004Usp03 901: Empty translation
Skipping example trtex004Usp03 907: Empty translation
Skipping example trtex004Usp03 918: missing fields
Skipping example trtex004Usp03 930: missing fields
Skipping example trtex004Usp03 939: missing fields
Skipping example trtex004Usp03 960: missing fields
Skipping example trtex004Usp03 964: inaudible token
Skipping example trtex004Usp03 968: inaudible token
Skipping example trtex004Usp03 972: inaudible token
Skipping example trtex004Usp03 982: inaudible token
Skipping example trtex004Usp03 998: inaudible token
Skipping example trtex004Usp03 999: inaudible token
Skipping example trtex004Usp03 1000: inaudible token
Skipping example trtex004Usp03 1009: missing fields
Skipping example trtex004Usp03 1019: inaudible token
Skipping example trtex004Usp03 1023: inaudible token
Skipping example trtex004Usp03 1024: inaudible token
Skipping example trtex004Usp03 1026: inaudible token
Skipping example trtex004Usp03 1030: Empty translation
Skipping example trtex004Usp03 1031: Empty translation
Skipping example trtex004Usp03 1072: inaudible token
Skipping example trtex004Usp03 1075: missing fields
Skipping example trtex004Usp03 1080: inaudible token
Skipping example trtex004Usp03 1083: MOR, POS, GLS and TXT lengths don't match
Skipping example trtex004Usp03 1089: missing fields
Skipping example trtex004Usp03 1111: missing fields
Skipping example trtex004Usp03 1113: missing fields
Skipping example trtex004Usp03 1119: inaudible token
Skipping example trtex004Usp03 1129: missing fields
Skipping example trtex004Usp03 1144: inaudible token
Skipping example trtex004Usp03 1146: inaudible token
Skipping example trtex004Usp03 1179: missing fields
Got 1065 glossed sentences
Filtered out 156 sentences

Input file: data/Uspanteko/source_data/52.final
Output file: data/Uspanteko/st_data/52.txt
Skipping example {none}: missing fields
Skipping example trtex052Usp04 001: missing fields
Skipping example trtex052Usp04 003: inaudible token
Skipping example trtex052Usp04 014: inaudible token
Skipping example trtex052Usp04 015: inaudible token
Skipping example trtex052Usp04 019: inaudible token
Skipping example trtex052Usp04 022: inaudible token
Skipping example trtex052Usp04 025: inaudible token
Skipping example trtex052Usp04 051: inaudible token
Skipping example trtex052Usp04 053: inaudible token
Skipping example trtex052Usp04 071: inaudible token
Skipping example trtex052Usp04 080: inaudible token
Skipping example trtex052Usp04 123: inaudible token
Skipping example trtex052Usp04 126: inaudible token
Skipping example trtex052Usp04 136: inaudible token
Skipping example trtex052Usp04 138: inaudible token
Skipping example trtex052Usp04 143: inaudible token
Skipping example trtex052Usp04 146: inaudible token
Skipping example trtex052Usp04 147: inaudible token
Skipping example trtex052Usp04 155: inaudible token
Skipping example trtex052Usp04 157: inaudible token
Skipping example trtex052Usp04 162: inaudible token
Skipping example trtex052Usp04 166: inaudible token
Skipping example trtex052Usp04 178: missing fields
Got 155 glossed sentences
Filtered out 24 sentences

Input file: data/Uspanteko/source_data/56.final
Output file: data/Uspanteko/st_data/56.txt
Skipping example {none}: missing fields
Skipping example trtex056Usp04 001: missing fields
Skipping example trtex056Usp04 002: inaudible token
Skipping example trtex056Usp04 007: inaudible token
Skipping example trtex056Usp04 021: inaudible token
Skipping example trtex056Usp04 033: inaudible token
Skipping example trtex056Usp04 055: inaudible token
Skipping example trtex056Usp04 081: inaudible token
Skipping example trtex056Usp04 095: inaudible token
Skipping example trtex056Usp04 110: inaudible token
Skipping example trtex056Usp04 132: inaudible token
Skipping example trtex056Usp04 133: inaudible token
Skipping example trtex056Usp04 159: inaudible token
Skipping example trtex056Usp04 243: inaudible token
Skipping example trtex056Usp04 246: missing fields
Got 232 glossed sentences
Filtered out 15 sentences

Input file: data/Uspanteko/source_data/63.final
Output file: data/Uspanteko/st_data/63.txt
Skipping example {none}: missing fields
Skipping example trtex063Usp04 001: missing fields
Skipping example trtex063Usp04 002: inaudible token
Skipping example trtex063Usp04 003: inaudible token
Skipping example trtex063Usp04 068: inaudible token
Skipping example trtex063Usp04 074: inaudible token
Skipping example trtex063Usp04 076: inaudible token
Skipping example trtex063Usp04 077: inaudible token
Skipping example trtex063Usp04 100: inaudible token
Skipping example trtex063Usp04 101: inaudible token
Skipping example trtex063Usp04 110: inaudible token
Skipping example trtex063Usp04 153: inaudible token
Skipping example trtex063Usp04 180: inaudible token
Skipping example trtex063Usp04 211: inaudible token
Skipping example trtex063Usp04 250: inaudible token
Skipping example trtex063Usp04 268: inaudible token
Skipping example trtex063Usp04 359: inaudible token
Skipping example trtex063Usp04 367: inaudible token
Skipping example trtex063Usp04 417: inaudible token
Skipping example trtex063Usp04 424: inaudible token
Skipping example trtex063Usp04 426: inaudible token
Skipping example trtex063Usp04 430: inaudible token
Skipping example trtex063Usp04 432: inaudible token
Skipping example trtex063Usp04 462: inaudible token
Skipping example trtex063Usp04 467: inaudible token
Skipping example trtex063Usp04 519: inaudible token
Skipping example trtex063Usp04 527: inaudible token
Skipping example trtex063Usp04 574: inaudible token
Skipping example trtex063Usp04 590: inaudible token
Skipping example trtex063Usp04 598: inaudible token
Skipping example trtex063Usp04 654: inaudible token
Skipping example trtex063Usp04 663: missing fields
Got 633 glossed sentences
Filtered out 32 sentences

