Input file: data/Arapaho/source_data/arp-CLDFmaster.csv
Output file: data/Arapaho/st_data/arp-CLDFmaster.txt
Filter punctuation: True
Skipping example 1.007: Missing gloss/segmentation
Skipping example 1.01: GLS and TXT lengths don't match
Skipping example 1.013: Missing gloss/segmentation
Skipping example 1.014: GLS and TXT lengths don't match
Skipping example 1.017: GLS and TXT lengths don't match
Skipping example 1.021: Missing gloss/segmentation
Skipping example 1.024: GLS and TXT lengths don't match
Skipping example 1.036: GLS and TXT lengths don't match
Skipping example 1.042: GLS and TXT lengths don't match
Skipping example 1.045: Missing gloss/segmentation
Skipping example 1.049: GLS and TXT lengths don't match
Skipping example 10.006: GLS and TXT lengths don't match
Skipping example 10.008: GLS and TXT lengths don't match
Skipping example 10.01: GLS and TXT lengths don't match
Skipping example 10.019: GLS and TXT lengths don't match
Skipping example 10.024: GLS and TXT lengths don't match
Skipping example 10.029: GLS and TXT lengths don't match
Skipping example 10.032: GLS and TXT lengths don't match
Skipping example 10.037: GLS and TXT lengths don't match
Skipping example 14a.004: GLS and TXT lengths don't match
Skipping example 14a.010: GLS and TXT lengths don't match
Skipping example 14a.022: GLS and TXT lengths don't match
Skipping example 14a.023: GLS and TXT lengths don't match
Skipping example 14b.003: GLS and TXT lengths don't match
Skipping example 14b.004: GLS and TXT lengths don't match
Skipping example 14b.006: GLS and TXT lengths don't match
Skipping example 14b.009: GLS and TXT lengths don't match
Skipping example 14b.011: GLS and TXT lengths don't match
Skipping example 14b.012: GLS and TXT lengths don't match
Skipping example 14c.002: GLS and TXT lengths don't match
Skipping example 14c.003: GLS and TXT lengths don't match
Skipping example 14c.004: GLS and TXT lengths don't match
Skipping example 14c.005: GLS and TXT lengths don't match
Skipping example 14e.004: GLS and TXT lengths don't match
Skipping example 14e.008: GLS and TXT lengths don't match
Skipping example 14e.010: GLS and TXT lengths don't match
Skipping example 14g.004: GLS and TXT lengths don't match
Skipping example 14g.023: GLS and TXT lengths don't match
Skipping example 14g.024: GLS and TXT lengths don't match
Skipping example 14g.060: GLS and TXT lengths don't match
Skipping example 14d.004: GLS and TXT lengths don't match
Skipping example 14d.005: GLS and TXT lengths don't match
Skipping example 14h.007: Missing gloss/segmentation
Skipping example 15sppt1.007: GLS and TXT lengths don't match
Skipping example 15sppt1.013: GLS and TXT lengths don't match
Skipping example 15sppt1.014: GLS and TXT lengths don't match
Skipping example 15sppt1.019: GLS and TXT lengths don't match
Skipping example 15sppt1.020: GLS and TXT lengths don't match
Skipping example 15sppt1.022: GLS and TXT lengths don't match
Skipping example 15sppt1.038: GLS and TXT lengths don't match
Skipping example 15sppt1.040: GLS and TXT lengths don't match
Skipping example 15sppt1.041: GLS and TXT lengths don't match
Skipping example 15sppt1.043: GLS and TXT lengths don't match
Skipping example 15sppt1.050: GLS and TXT lengths don't match
Skipping example 15sppt1.051: GLS and TXT lengths don't match
Skipping example 15sppt1.052: GLS and TXT lengths don't match
Skipping example 15sppt1.058: GLS and TXT lengths don't match
Skipping example 15sppt1.061: GLS and TXT lengths don't match
Skipping example 15sppt1.067: GLS and TXT lengths don't match
Skipping example 15sppt1.069: GLS and TXT lengths don't match
Skipping example 15sppt1.072: GLS and TXT lengths don't match
Skipping example 15sppt1.073: GLS and TXT lengths don't match
Skipping example 15sppt1.074: GLS and TXT lengths don't match
Skipping example 15sppt1.076: GLS and TXT lengths don't match
Skipping example 15sppt1.077: GLS and TXT lengths don't match
Skipping example 15sppt1.086: GLS and TXT lengths don't match
Skipping example 15sppt1.092: GLS and TXT lengths don't match
Skipping example 15sppt1.094: GLS and TXT lengths don't match
Skipping example 15sppt1.099: GLS and TXT lengths don't match
Skipping example 15sppt1.100: GLS and TXT lengths don't match
Skipping example 15sppt1.104: GLS and TXT lengths don't match
Skipping example 15sppt1.105: GLS and TXT lengths don't match
Skipping example 15sppt1.114: GLS and TXT lengths don't match
Skipping example 15sppt1.118: GLS and TXT lengths don't match
Skipping example 15sppt1.124: GLS and TXT lengths don't match
Skipping example 15sppt1.129: GLS and TXT lengths don't match
Skipping example 15sppt1.130: GLS and TXT lengths don't match
Skipping example 15sppt1.131: GLS and TXT lengths don't match
Skipping example 15sppt1.132: GLS and TXT lengths don't match
Skipping example 15sppt1.135: GLS and TXT lengths don't match
Skipping example 15sppt1.137: GLS and TXT lengths don't match
Skipping example 15sppt1.139: GLS and TXT lengths don't match
Skipping example 15sppt2.001: Missing gloss/segmentation
Skipping example 15sppt2.007: GLS and TXT lengths don't match
Skipping example 15sppt2.008: GLS and TXT lengths don't match
Skipping example 15sppt2.010: Missing gloss/segmentation
Skipping example 15sppt2.012: GLS and TXT lengths don't match
Skipping example 15sppt2.017: GLS and TXT lengths don't match
Skipping example 15sppt2.019: GLS and TXT lengths don't match
Skipping example 15sppt2.021: GLS and TXT lengths don't match
Skipping example 15sppt2.023: GLS and TXT lengths don't match
Skipping example 15sppt2.028: GLS and TXT lengths don't match
Skipping example 15sppt2.032: GLS and TXT lengths don't match
Skipping example 15sppt2.034: GLS and TXT lengths don't match
Skipping example 15sppt2.039: GLS and TXT lengths don't match
Skipping example 15sppt2.042: GLS and TXT lengths don't match
Skipping example 15sppt2.045: GLS and TXT lengths don't match
Skipping example 15sppt2.049: GLS and TXT lengths don't match
Skipping example 15sppt2.051: GLS and TXT lengths don't match
Skipping example 15sppt2.052: GLS and TXT lengths don't match
Skipping example 15sppt2.059: GLS and TXT lengths don't match
Skipping example 15sppt2.069: GLS and TXT lengths don't match
Skipping example 15sppt2.071: GLS and TXT lengths don't match
Skipping example 15sppt2.072: GLS and TXT lengths don't match
Skipping example 15sppt2.074: GLS and TXT lengths don't match
Skipping example 15sppt2.078: GLS and TXT lengths don't match
Skipping example 15sppt2.081: GLS and TXT lengths don't match
Skipping example 15sppt2.082: GLS and TXT lengths don't match
Skipping example 15sppt2.084: GLS and TXT lengths don't match
Skipping example 15sppt2.087: GLS and TXT lengths don't match
Skipping example 15sppt2.090: GLS and TXT lengths don't match
Skipping example 15sppt2.091: GLS and TXT lengths don't match
Skipping example 15sppt2.094: GLS and TXT lengths don't match
Skipping example 15sppt2.099: GLS and TXT lengths don't match
Skipping example 15sppt2.105: GLS and TXT lengths don't match
Skipping example 15sppt2.110: GLS and TXT lengths don't match
Skipping example 15sppt2.116: GLS and TXT lengths don't match
Skipping example 15sppt2.119: GLS and TXT lengths don't match
Skipping example 15sppt2.128: GLS and TXT lengths don't match
Skipping example 15sppt2.129: GLS and TXT lengths don't match
Skipping example 15sppt2.131: GLS and TXT lengths don't match
Skipping example 15sppt2.135: GLS and TXT lengths don't match
Skipping example 15sppt2.138: GLS and TXT lengths don't match
Skipping example 15sppt2.140: GLS and TXT lengths don't match
Skipping example 15sppt2.149: GLS and TXT lengths don't match
Skipping example 15sppt2.158: GLS and TXT lengths don't match
Skipping example 15sppt2.160: GLS and TXT lengths don't match
Skipping example 15sppt2.164: GLS and TXT lengths don't match
Skipping example 15sppt2.165: GLS and TXT lengths don't match
Skipping example 15sppt2.166: GLS and TXT lengths don't match
Skipping example 15captive.009: GLS and TXT lengths don't match
Skipping example 15captive.011: GLS and TXT lengths don't match
Skipping example 15captive.015: GLS and TXT lengths don't match
Skipping example 15captive.018: GLS and TXT lengths don't match
Skipping example 15captive.019: GLS and TXT lengths don't match
Skipping example 15captive.023: GLS and TXT lengths don't match
Skipping example 15captive.026: GLS and TXT lengths don't match
Skipping example 15captive.028: GLS and TXT lengths don't match
Skipping example 15captive.031: GLS and TXT lengths don't match
Skipping example 15captive.035: GLS and TXT lengths don't match
Skipping example 15captive.037: GLS and TXT lengths don't match
Skipping example 15captive.038: GLS and TXT lengths don't match
Skipping example 15captive.048: GLS and TXT lengths don't match
Skipping example 15captive.050: GLS and TXT lengths don't match
Skipping example 15captive.051: GLS and TXT lengths don't match
Skipping example 15captive.057: GLS and TXT lengths don't match
Skipping example 15captive.059: GLS and TXT lengths don't match
Skipping example 15captive.061: GLS and TXT lengths don't match
Skipping example 15captive.064: GLS and TXT lengths don't match
Skipping example 15captive.067: GLS and TXT lengths don't match
Skipping example 15captive.070: GLS and TXT lengths don't match
Skipping example 15captive.071: GLS and TXT lengths don't match
Skipping example 15captive.074: GLS and TXT lengths don't match
Skipping example 15captive.075: GLS and TXT lengths don't match
Skipping example 15captive.076: GLS and TXT lengths don't match
Skipping example 15captive.077: GLS and TXT lengths don't match
Skipping example 15captive.078: GLS and TXT lengths don't match
Skipping example 15captive.079: GLS and TXT lengths don't match
Skipping example 15captive.083: GLS and TXT lengths don't match
Skipping example 15captive.086: GLS and TXT lengths don't match
Skipping example 15captive.090: GLS and TXT lengths don't match
Skipping example 15captive.093: GLS and TXT lengths don't match
Skipping example 15captive.094: GLS and TXT lengths don't match
Skipping example 15captive.096: GLS and TXT lengths don't match
Skipping example 15captive.102: GLS and TXT lengths don't match
Skipping example 15captive.105: GLS and TXT lengths don't match
Skipping example 15captive.109: GLS and TXT lengths don't match
Skipping example 15captive.110: GLS and TXT lengths don't match
Skipping example 15captive.114: GLS and TXT lengths don't match
Skipping example 15captive.115: GLS and TXT lengths don't match
Skipping example 15captive.118: GLS and TXT lengths don't match
Skipping example 15captive.123: GLS and TXT lengths don't match
Skipping example 15captive.131: GLS and TXT lengths don't match
Skipping example 15captive.134: GLS and TXT lengths don't match
Skipping example 15captive.135: GLS and TXT lengths don't match
Skipping example 15captive.136: GLS and TXT lengths don't match
Skipping example 15captive.140: GLS and TXT lengths don't match
Skipping example 15captive.141: GLS and TXT lengths don't match
Skipping example 15captive.144: GLS and TXT lengths don't match
Skipping example 15captive.145: Missing gloss/segmentation
Skipping example 15captive.148: GLS and TXT lengths don't match
Skipping example 15captive.149: GLS and TXT lengths don't match
Skipping example 15captive.153: GLS and TXT lengths don't match
Skipping example 15captive.154: GLS and TXT lengths don't match
Skipping example 15captive.157: GLS and TXT lengths don't match
Skipping example 15captive.159: GLS and TXT lengths don't match
Skipping example 15captive.160: GLS and TXT lengths don't match
Skipping example 15captive.163: GLS and TXT lengths don't match
Skipping example 15captive.167: Missing gloss/segmentation
Skipping example 15captive.173: GLS and TXT lengths don't match
Skipping example 15captive.176: GLS and TXT lengths don't match
Skipping example 15captive.177: GLS and TXT lengths don't match
Skipping example 15captive.203: GLS and TXT lengths don't match
Skipping example 15captive.209: GLS and TXT lengths don't match
Skipping example 15captive.212: GLS and TXT lengths don't match
Skipping example 15captive.214: GLS and TXT lengths don't match
Skipping example 15captive.218: GLS and TXT lengths don't match
Skipping example 15captive.223: GLS and TXT lengths don't match
Skipping example 15captive.224: Missing gloss/segmentation
Skipping example 15captive.225: GLS and TXT lengths don't match
Skipping example 15eag.004: GLS and TXT lengths don't match
Skipping example 15eag.014: Missing gloss/segmentation
Skipping example 15eag.017: Missing gloss/segmentation
Skipping example 15eag.020: Missing gloss/segmentation
Skipping example 15eag.027: GLS and TXT lengths don't match
Skipping example 15eag.034: GLS and TXT lengths don't match
Skipping example 15eag.036: GLS and TXT lengths don't match
Skipping example 15eag.037: GLS and TXT lengths don't match
Skipping example 15eag.043: GLS and TXT lengths don't match
Skipping example 15eag.048: GLS and TXT lengths don't match
Skipping example 15eag.049: GLS and TXT lengths don't match
Skipping example 15eag.051: GLS and TXT lengths don't match
Skipping example 15eag.054: GLS and TXT lengths don't match
Skipping example 15eag.056: GLS and TXT lengths don't match
Skipping example 15eag.058: GLS and TXT lengths don't match
Skipping example 15eag.059: GLS and TXT lengths don't match
Skipping example 15eag.061: GLS and TXT lengths don't match
Skipping example 15eag.062: GLS and TXT lengths don't match
Skipping example 15eag.063: GLS and TXT lengths don't match
Skipping example 15eag.065: GLS and TXT lengths don't match
Skipping example 15eag.066: GLS and TXT lengths don't match
Skipping example 15eag.067: Missing gloss/segmentation
Skipping example 15eag.076: GLS and TXT lengths don't match
Skipping example 15eag.077: GLS and TXT lengths don't match
Skipping example 15eag.079: GLS and TXT lengths don't match
Skipping example 15eag.080: GLS and TXT lengths don't match
Skipping example 15eag.082: GLS and TXT lengths don't match
Skipping example 15eag.083: GLS and TXT lengths don't match
Skipping example 15eag.086: GLS and TXT lengths don't match
Skipping example 15eag.091: GLS and TXT lengths don't match
Skipping example 15eag.092: GLS and TXT lengths don't match
Skipping example 15sec.002: GLS and TXT lengths don't match
Skipping example 15sec.004: GLS and TXT lengths don't match
Skipping example 15sec.005: GLS and TXT lengths don't match
Skipping example 15sec.009: GLS and TXT lengths don't match
Skipping example 15sec.018: GLS and TXT lengths don't match
Skipping example 15sec.044: GLS and TXT lengths don't match
Skipping example 15sec.046: GLS and TXT lengths don't match
Skipping example 15sec.049: GLS and TXT lengths don't match
Skipping example 15sec.053: GLS and TXT lengths don't match
Skipping example 15sec.054: GLS and TXT lengths don't match
Skipping example 15sec.055: GLS and TXT lengths don't match
Skipping example 15sec.057: GLS and TXT lengths don't match
Skipping example 15sec.064: GLS and TXT lengths don't match
Skipping example 15sec.073: GLS and TXT lengths don't match
Skipping example 15sec.077: GLS and TXT lengths don't match
Skipping example 15sec.078: GLS and TXT lengths don't match
Skipping example 15sec.079: GLS and TXT lengths don't match
Skipping example 15sec.080: GLS and TXT lengths don't match
Skipping example 15sec.085: GLS and TXT lengths don't match
Skipping example 15sec.086: GLS and TXT lengths don't match
Skipping example 15sec.087: GLS and TXT lengths don't match
Skipping example 15sec.090: GLS and TXT lengths don't match
Skipping example 15sec.091: GLS and TXT lengths don't match
Skipping example 15sec.095: GLS and TXT lengths don't match
Skipping example 15sec.096: GLS and TXT lengths don't match
Skipping example 15sec.101: GLS and TXT lengths don't match
Skipping example 15sec.102: GLS and TXT lengths don't match
Skipping example 15sec.103: GLS and TXT lengths don't match
Skipping example 15sec.104: GLS and TXT lengths don't match
Skipping example 15sec.105: GLS and TXT lengths don't match
Skipping example 15sec.108: GLS and TXT lengths don't match
Skipping example 15sec.112: GLS and TXT lengths don't match
Skipping example 15sec.117: GLS and TXT lengths don't match
Skipping example 15sec.120: Missing gloss/segmentation
Skipping example 15sec.122: Missing gloss/segmentation
Skipping example 15sec.125: GLS and TXT lengths don't match
Skipping example 15sec.126: GLS and TXT lengths don't match
Skipping example 15sec.137: GLS and TXT lengths don't match
Skipping example 15sec.138: GLS and TXT lengths don't match
Skipping example 15sec.139: GLS and TXT lengths don't match
Skipping example 15sec.140: GLS and TXT lengths don't match
Skipping example 15sec.143: GLS and TXT lengths don't match
Skipping example 15sec.145: GLS and TXT lengths don't match
Skipping example 15sec.155: GLS and TXT lengths don't match
Skipping example 17b.004: GLS and TXT lengths don't match
Skipping example 17b.007: GLS and TXT lengths don't match
Skipping example 17b.009: GLS and TXT lengths don't match
Skipping example 17b.010: GLS and TXT lengths don't match
Skipping example 17b.011: GLS and TXT lengths don't match
Skipping example 17b.012: GLS and TXT lengths don't match
Skipping example 17b.014: GLS and TXT lengths don't match
Skipping example 17b.020: GLS and TXT lengths don't match
Skipping example 17b.025: GLS and TXT lengths don't match
Skipping example 18a.0060: GLS and TXT lengths don't match
Skipping example 18a.0065: GLS and TXT lengths don't match
Skipping example 18a.0078: GLS and TXT lengths don't match
Skipping example 18a.0079: GLS and TXT lengths don't match
Skipping example 18a.0080: GLS and TXT lengths don't match
Skipping example 18a.0097: GLS and TXT lengths don't match
Skipping example 18a.0099: GLS and TXT lengths don't match
Skipping example 18a.0104: GLS and TXT lengths don't match
Skipping example 18a.0133: Missing gloss/segmentation
Skipping example 18a.0135: GLS and TXT lengths don't match
Skipping example 18a.0136: GLS and TXT lengths don't match
Skipping example 18a.0138: GLS and TXT lengths don't match
Skipping example 18a.0148: GLS and TXT lengths don't match
Skipping example 18a.0152: GLS and TXT lengths don't match
Skipping example 18a.0154: GLS and TXT lengths don't match
Skipping example 18a.0162: GLS and TXT lengths don't match
Skipping example 18a.0163: GLS and TXT lengths don't match
Skipping example 18a.0166: GLS and TXT lengths don't match
Skipping example 18a.0167: GLS and TXT lengths don't match
Skipping example 18a.0185: GLS and TXT lengths don't match
Skipping example 18a.0205: GLS and TXT lengths don't match
Skipping example 18a.0214: GLS and TXT lengths don't match
Skipping example 18a.0222: GLS and TXT lengths don't match
Skipping example 18a.0224: GLS and TXT lengths don't match
Skipping example 18a.0225: GLS and TXT lengths don't match
Skipping example 18a.0236: GLS and TXT lengths don't match
Skipping example 18a.0254: GLS and TXT lengths don't match
Skipping example 18a.0275: GLS and TXT lengths don't match
Skipping example 18a.0276: GLS and TXT lengths don't match
Skipping example 18a.0279: GLS and TXT lengths don't match
Skipping example 18a.0286: GLS and TXT lengths don't match
Skipping example 18a.0290: GLS and TXT lengths don't match
Skipping example 18a.0292: GLS and TXT lengths don't match
Skipping example 18a.0295: GLS and TXT lengths don't match
Skipping example 18a.0307: GLS and TXT lengths don't match
Skipping example 18a.0311: GLS and TXT lengths don't match
Skipping example 18a.0312: GLS and TXT lengths don't match
Skipping example 18a.0313: GLS and TXT lengths don't match
Skipping example 18a.0318: GLS and TXT lengths don't match
Skipping example 18a.0330: GLS and TXT lengths don't match
Skipping example 18a.0331: GLS and TXT lengths don't match
Skipping example 18a.0337: GLS and TXT lengths don't match
Skipping example 18a.0346: GLS and TXT lengths don't match
Skipping example 18a.0348: GLS and TXT lengths don't match
Skipping example 18a.0352: GLS and TXT lengths don't match
Skipping example 18a.0353: GLS and TXT lengths don't match
Skipping example 18a.0361: GLS and TXT lengths don't match
Skipping example 18a.0364: GLS and TXT lengths don't match
Skipping example 18a.0375: GLS and TXT lengths don't match
Skipping example 18a.0381: GLS and TXT lengths don't match
Skipping example 18a.0389: GLS and TXT lengths don't match
Skipping example 18a.0401: GLS and TXT lengths don't match
Skipping example 18a.0405: GLS and TXT lengths don't match
Skipping example 18a.0409: Missing gloss/segmentation
Skipping example 18a.0419: GLS and TXT lengths don't match
Skipping example 18a.0428: GLS and TXT lengths don't match
Skipping example 18a.0436: GLS and TXT lengths don't match
Skipping example 18a.0447: GLS and TXT lengths don't match
Skipping example 18a.0452: GLS and TXT lengths don't match
Skipping example 18a.0457: GLS and TXT lengths don't match
Skipping example 18a.0458: GLS and TXT lengths don't match
Skipping example 18a.0459: GLS and TXT lengths don't match
Skipping example 18a.0465: GLS and TXT lengths don't match
Skipping example 18a.0467: GLS and TXT lengths don't match
Skipping example 18a.0470: GLS and TXT lengths don't match
Skipping example 18a.0478: GLS and TXT lengths don't match
Skipping example 18a.0487: GLS and TXT lengths don't match
Skipping example 18a.0489: GLS and TXT lengths don't match
Skipping example 18a.0498: Missing gloss/segmentation
Skipping example 18a.0578: GLS and TXT lengths don't match
Skipping example 18a.0580: GLS and TXT lengths don't match
Skipping example 18a.0592: GLS and TXT lengths don't match
Skipping example 18a.0626: GLS and TXT lengths don't match
Skipping example 18a.0668: GLS and TXT lengths don't match
Skipping example 18a.0672: GLS and TXT lengths don't match
Skipping example 18a.0684: GLS and TXT lengths don't match
Skipping example 18a.0704: GLS and TXT lengths don't match
Skipping example 18a.0706: GLS and TXT lengths don't match
Skipping example 18a.0740: GLS and TXT lengths don't match
Skipping example 18a.0747: GLS and TXT lengths don't match
Skipping example 18a.0793: GLS and TXT lengths don't match
Skipping example 18a.0795: GLS and TXT lengths don't match
Skipping example 18a.0810: GLS and TXT lengths don't match
Skipping example 18a.0812: GLS and TXT lengths don't match
Skipping example 18a.0813: GLS and TXT lengths don't match
Skipping example 18a.0822: GLS and TXT lengths don't match
Skipping example 18a.0826: GLS and TXT lengths don't match
Skipping example 18a.0827: Missing gloss/segmentation
Skipping example 18a.0835: GLS and TXT lengths don't match
Skipping example 18a.0844: GLS and TXT lengths don't match
Skipping example 18a.0849: GLS and TXT lengths don't match
Skipping example 18a.0856: GLS and TXT lengths don't match
Skipping example 18a.0860: GLS and TXT lengths don't match
Skipping example 18a.0889: GLS and TXT lengths don't match
Skipping example 18a.0904: Missing gloss/segmentation
Skipping example 18a.0913: GLS and TXT lengths don't match
Skipping example 18a.0917: GLS and TXT lengths don't match
Skipping example 18a.0940: GLS and TXT lengths don't match
Skipping example 18a.0941: GLS and TXT lengths don't match
Skipping example 18a.0943: GLS and TXT lengths don't match
Skipping example 18a.0951: GLS and TXT lengths don't match
Skipping example 18a.0960: GLS and TXT lengths don't match
Skipping example 18a.0964: GLS and TXT lengths don't match
Skipping example 18a.0977: GLS and TXT lengths don't match
Skipping example 18a.0978: GLS and TXT lengths don't match
Skipping example 18a.0982: GLS and TXT lengths don't match
Skipping example 18a.1009: GLS and TXT lengths don't match
Skipping example 18a.1010: GLS and TXT lengths don't match
Skipping example 18a.1017: GLS and TXT lengths don't match
Skipping example 18a.1035: GLS and TXT lengths don't match
Skipping example 18a.1036: GLS and TXT lengths don't match
Skipping example 18b.004: GLS and TXT lengths don't match
Skipping example 18b.011: Missing gloss/segmentation
Skipping example 18b.015: GLS and TXT lengths don't match
Skipping example 18b.016: GLS and TXT lengths don't match
Skipping example 18b.019: GLS and TXT lengths don't match
Skipping example 18b.044: GLS and TXT lengths don't match
Skipping example 18b.066: GLS and TXT lengths don't match
Skipping example 18b.071: GLS and TXT lengths don't match
Skipping example 18b.078: GLS and TXT lengths don't match
Skipping example 18b.080: GLS and TXT lengths don't match
Skipping example 18b.082: GLS and TXT lengths don't match
Skipping example 18b.084: GLS and TXT lengths don't match
Skipping example 18b.087: GLS and TXT lengths don't match
Skipping example 18b.089: GLS and TXT lengths don't match
Skipping example 18b.099: GLS and TXT lengths don't match
Skipping example 18b.103: GLS and TXT lengths don't match
Skipping example 18b.105: GLS and TXT lengths don't match
Skipping example 18b.118: GLS and TXT lengths don't match
Skipping example 18b.121: GLS and TXT lengths don't match
Skipping example 18b.122: GLS and TXT lengths don't match
Skipping example 18b.125: GLS and TXT lengths don't match
Skipping example 18b.134: GLS and TXT lengths don't match
Skipping example 18b.138: GLS and TXT lengths don't match
Skipping example 18b.150: GLS and TXT lengths don't match
Skipping example 18b.171: GLS and TXT lengths don't match
Skipping example 18b.172: Missing gloss/segmentation
Skipping example 18b.173: GLS and TXT lengths don't match
Skipping example 18b.174: GLS and TXT lengths don't match
Skipping example 18b.175: GLS and TXT lengths don't match
Skipping example 18b.176: GLS and TXT lengths don't match
Skipping example 18b.181: GLS and TXT lengths don't match
Skipping example 18b.182: Missing gloss/segmentation
Skipping example 18b.183: Missing gloss/segmentation
Skipping example 18b.187: GLS and TXT lengths don't match
Skipping example 18b.195: GLS and TXT lengths don't match
Skipping example 18b.203: GLS and TXT lengths don't match
Skipping example 18b.204: GLS and TXT lengths don't match
Skipping example 18b.225: Missing gloss/segmentation
Skipping example 18b.233: GLS and TXT lengths don't match
Skipping example 18b.236: GLS and TXT lengths don't match
Skipping example 18b.241: GLS and TXT lengths don't match
Skipping example 18b.249: GLS and TXT lengths don't match
Skipping example 18b.250: GLS and TXT lengths don't match
Skipping example 18b.256: GLS and TXT lengths don't match
Skipping example 18b.268: GLS and TXT lengths don't match
Skipping example 18b.270: GLS and TXT lengths don't match
Skipping example 18b.273: GLS and TXT lengths don't match
Skipping example 18b.274: GLS and TXT lengths don't match
Skipping example 18b.282: GLS and TXT lengths don't match
Skipping example 18b.298: GLS and TXT lengths don't match
Skipping example 18b.304: GLS and TXT lengths don't match
Skipping example 18c.003: GLS and TXT lengths don't match
Skipping example 18c.027: GLS and TXT lengths don't match
Skipping example 18c.028: GLS and TXT lengths don't match
Skipping example 18c.081: GLS and TXT lengths don't match
Skipping example 18c.083: GLS and TXT lengths don't match
Skipping example 18c.092: GLS and TXT lengths don't match
Skipping example 18c.097: GLS and TXT lengths don't match
Skipping example 18c.104: GLS and TXT lengths don't match
Skipping example 18c.114: GLS and TXT lengths don't match
Skipping example 18c.118: GLS and TXT lengths don't match
Skipping example 18c.136: GLS and TXT lengths don't match
Skipping example 18c.191: GLS and TXT lengths don't match
Skipping example 18c.228: GLS and TXT lengths don't match
Skipping example 18c.230: GLS and TXT lengths don't match
Skipping example 18c.245: GLS and TXT lengths don't match
Skipping example 18c.247: GLS and TXT lengths don't match
Skipping example 18c.251: GLS and TXT lengths don't match
Skipping example 18c.270: GLS and TXT lengths don't match
Skipping example 18c.340: GLS and TXT lengths don't match
Skipping example 18c.343: GLS and TXT lengths don't match
Skipping example 18c.345: GLS and TXT lengths don't match
Skipping example 18c.349: GLS and TXT lengths don't match
Skipping example 18c.351: GLS and TXT lengths don't match
Skipping example 18c.352: GLS and TXT lengths don't match
Skipping example 18c.354: GLS and TXT lengths don't match
Skipping example 18c.381: GLS and TXT lengths don't match
Skipping example 18c.385: GLS and TXT lengths don't match
Skipping example 18c.390: GLS and TXT lengths don't match
Skipping example 18c.395: GLS and TXT lengths don't match
Skipping example 18c.429: GLS and TXT lengths don't match
Skipping example 18c.434: Missing gloss/segmentation
Skipping example 18c.437: GLS and TXT lengths don't match
Skipping example 18c.481: GLS and TXT lengths don't match
Skipping example 18c.487: GLS and TXT lengths don't match
Skipping example 18c.495: GLS and TXT lengths don't match
Skipping example 18c.496: GLS and TXT lengths don't match
Skipping example 18c.503: GLS and TXT lengths don't match
Skipping example 18c.519: GLS and TXT lengths don't match
Skipping example 18c.521: GLS and TXT lengths don't match
Skipping example 18c.526: GLS and TXT lengths don't match
Skipping example 2.004: GLS and TXT lengths don't match
Skipping example 2.005: GLS and TXT lengths don't match
Skipping example 2.02: GLS and TXT lengths don't match
Skipping example 2.021: GLS and TXT lengths don't match
Skipping example 2.026: GLS and TXT lengths don't match
Skipping example 2.027: GLS and TXT lengths don't match
Skipping example 20c.001: GLS and TXT lengths don't match
Skipping example 20c.010: GLS and TXT lengths don't match
Skipping example 20c.019: GLS and TXT lengths don't match
Skipping example 20c.023: GLS and TXT lengths don't match
Skipping example 20c.027: GLS and TXT lengths don't match
Skipping example 20c.032: GLS and TXT lengths don't match
Skipping example 20n.014: GLS and TXT lengths don't match
Skipping example 20n.027: GLS and TXT lengths don't match
Skipping example 20n.039: GLS and TXT lengths don't match
Skipping example 20n.049: GLS and TXT lengths don't match
Skipping example 20n.051: GLS and TXT lengths don't match
Skipping example 20nc.006: GLS and TXT lengths don't match
Skipping example 20nc.017: GLS and TXT lengths don't match
Skipping example 20nc.030: GLS and TXT lengths don't match
Skipping example 21a.005: GLS and TXT lengths don't match
Skipping example 21a.009: GLS and TXT lengths don't match
Skipping example 21a.029: GLS and TXT lengths don't match
Skipping example 21a.038: GLS and TXT lengths don't match
Skipping example 21a.045: GLS and TXT lengths don't match
Skipping example 21a.046: GLS and TXT lengths don't match
Skipping example 21b.019: GLS and TXT lengths don't match
Skipping example 21b.022: GLS and TXT lengths don't match
Skipping example 21b.032: GLS and TXT lengths don't match
Skipping example 21b.040: GLS and TXT lengths don't match
Skipping example 21b.046: GLS and TXT lengths don't match
Skipping example 21b.048: GLS and TXT lengths don't match
Skipping example 21b.052: GLS and TXT lengths don't match
Skipping example 21b.056: GLS and TXT lengths don't match
Skipping example 21b.058: GLS and TXT lengths don't match
Skipping example 21b.066: GLS and TXT lengths don't match
Skipping example 21b.076: GLS and TXT lengths don't match
Skipping example 21b.081: GLS and TXT lengths don't match
Skipping example 21b.083: GLS and TXT lengths don't match
Skipping example 21b.085: GLS and TXT lengths don't match
Skipping example 21b.087: GLS and TXT lengths don't match
Skipping example 21b.094: GLS and TXT lengths don't match
Skipping example 21b.100: GLS and TXT lengths don't match
Skipping example 21b.110: GLS and TXT lengths don't match
Skipping example 21b.122: Missing gloss/segmentation
Skipping example 21b.124: GLS and TXT lengths don't match
Skipping example 21b.130: GLS and TXT lengths don't match
Skipping example 21b.146: Missing gloss/segmentation
Skipping example 21b.152: GLS and TXT lengths don't match
Skipping example 21b.153: GLS and TXT lengths don't match
Skipping example 22a.005: Missing gloss/segmentation
Skipping example 22a.013: GLS and TXT lengths don't match
Skipping example 22a.035: GLS and TXT lengths don't match
Skipping example 22a.046: GLS and TXT lengths don't match
Skipping example 22a.050: GLS and TXT lengths don't match
Skipping example 22a.052: GLS and TXT lengths don't match
Skipping example 22a.054: GLS and TXT lengths don't match
Skipping example 22a.057: GLS and TXT lengths don't match
Skipping example 22a.067: GLS and TXT lengths don't match
Skipping example 22a.090: Missing gloss/segmentation
Skipping example 22a.091: Missing gloss/segmentation
Skipping example 22a.095: GLS and TXT lengths don't match
Skipping example 22a.107: GLS and TXT lengths don't match
Skipping example 22a.115: GLS and TXT lengths don't match
Skipping example 22a.117: GLS and TXT lengths don't match
Skipping example 22a.119: Missing gloss/segmentation
Skipping example 22a.134: Missing gloss/segmentation
Skipping example 22a.138: GLS and TXT lengths don't match
Skipping example 22a.139: GLS and TXT lengths don't match
Skipping example 22a.143: GLS and TXT lengths don't match
Skipping example 22a.145: GLS and TXT lengths don't match
Skipping example 22a.146: GLS and TXT lengths don't match
Skipping example 22a.151: Missing gloss/segmentation
Skipping example 22a.152: GLS and TXT lengths don't match
Skipping example 22a.160: GLS and TXT lengths don't match
Skipping example 22a.163: GLS and TXT lengths don't match
Skipping example 22a.166: Missing gloss/segmentation
Skipping example 22a.175: GLS and TXT lengths don't match
Skipping example 22a.180: GLS and TXT lengths don't match
Skipping example 22a.187: GLS and TXT lengths don't match
Skipping example 22a.189: GLS and TXT lengths don't match
Skipping example 22a.190: GLS and TXT lengths don't match
Skipping example 22a.204: GLS and TXT lengths don't match
Skipping example 22a.217: Missing gloss/segmentation
Skipping example 22a.220: GLS and TXT lengths don't match
Skipping example 22a.221: GLS and TXT lengths don't match
Skipping example 22a.226: GLS and TXT lengths don't match
Skipping example 22a.227: GLS and TXT lengths don't match
Skipping example 22a.231: GLS and TXT lengths don't match
Skipping example 22a.232: GLS and TXT lengths don't match
Skipping example 22a.255: GLS and TXT lengths don't match
Skipping example 22a.265: GLS and TXT lengths don't match
Skipping example 22a.268: GLS and TXT lengths don't match
Skipping example 22a.273: GLS and TXT lengths don't match
Skipping example 22a.280: GLS and TXT lengths don't match
Skipping example 22a.282: GLS and TXT lengths don't match
Skipping example 22a.284: Missing gloss/segmentation
Skipping example 22a.288: GLS and TXT lengths don't match
Skipping example 22a.291: GLS and TXT lengths don't match
Skipping example 22a.297: GLS and TXT lengths don't match
Skipping example 22a.298: GLS and TXT lengths don't match
Skipping example 22a.302: GLS and TXT lengths don't match
Skipping example 22a.307: Missing gloss/segmentation
Skipping example 22a.308: GLS and TXT lengths don't match
Skipping example 22a.310: GLS and TXT lengths don't match
Skipping example 22a.319: GLS and TXT lengths don't match
Skipping example 22a.324: GLS and TXT lengths don't match
Skipping example 22a.326: GLS and TXT lengths don't match
Skipping example 22a.327: GLS and TXT lengths don't match
Skipping example 22a.328: GLS and TXT lengths don't match
Skipping example 22a.329: GLS and TXT lengths don't match
Skipping example 22a.335: GLS and TXT lengths don't match
Skipping example 22a.353: GLS and TXT lengths don't match
Skipping example 22b.013: Missing gloss/segmentation
Skipping example 22b.014: GLS and TXT lengths don't match
Skipping example 22b.020: GLS and TXT lengths don't match
Skipping example 22b.027: GLS and TXT lengths don't match
Skipping example 22b.032: GLS and TXT lengths don't match
Skipping example 22b.060: GLS and TXT lengths don't match
Skipping example 22b.067: Missing gloss/segmentation
Skipping example 22b.072: Missing gloss/segmentation
Skipping example 22b.075: GLS and TXT lengths don't match
Skipping example 22b.098: Missing gloss/segmentation
Skipping example 22b.109: GLS and TXT lengths don't match
Skipping example 22b.117: GLS and TXT lengths don't match
Skipping example 22b.121: GLS and TXT lengths don't match
Skipping example 22b.123: GLS and TXT lengths don't match
Skipping example 22b.125: GLS and TXT lengths don't match
Skipping example 22b.135: Missing gloss/segmentation
Skipping example 22b.143: Missing gloss/segmentation
Skipping example 22b.155: Missing gloss/segmentation
Skipping example 22b.156: GLS and TXT lengths don't match
Skipping example 22b.157: GLS and TXT lengths don't match
Skipping example 22b.158: GLS and TXT lengths don't match
Skipping example 22b.162: GLS and TXT lengths don't match
Skipping example 22b.164: GLS and TXT lengths don't match
Skipping example 22b.173: Missing gloss/segmentation
Skipping example 22b.186: GLS and TXT lengths don't match
Skipping example 22b.197: Missing gloss/segmentation
Skipping example 22b.207: Missing gloss/segmentation
Skipping example 22b.212: Missing gloss/segmentation
Skipping example 22b.213: GLS and TXT lengths don't match
Skipping example 22b.218: GLS and TXT lengths don't match
Skipping example 22b.228: GLS and TXT lengths don't match
Skipping example 22b.246: GLS and TXT lengths don't match
Skipping example 22b.247: GLS and TXT lengths don't match
Skipping example 22b.250: Missing gloss/segmentation
Skipping example 22b.251: GLS and TXT lengths don't match
Skipping example 22b.256: GLS and TXT lengths don't match
Skipping example 22b.262: GLS and TXT lengths don't match
Skipping example 22b.270: GLS and TXT lengths don't match
Skipping example 22b.291: GLS and TXT lengths don't match
Skipping example 22b.294: GLS and TXT lengths don't match
Skipping example 22b.299: Missing gloss/segmentation
Skipping example 22b.319: GLS and TXT lengths don't match
Skipping example 22b.327: Missing gloss/segmentation
Skipping example 22b.352: Missing gloss/segmentation
Skipping example 22b.353: GLS and TXT lengths don't match
Skipping example 22b.376: GLS and TXT lengths don't match
Skipping example 22b.386: Missing gloss/segmentation
Skipping example 22b.387: Missing gloss/segmentation
Skipping example 22b.389: Missing gloss/segmentation
Skipping example 22b.391: GLS and TXT lengths don't match
Skipping example 22b.398: GLS and TXT lengths don't match
Skipping example 22b.429: GLS and TXT lengths don't match
Skipping example 22b.447: GLS and TXT lengths don't match
Skipping example 22b.457: GLS and TXT lengths don't match
Skipping example 22b.463: Missing gloss/segmentation
Skipping example 22b.470: GLS and TXT lengths don't match
Skipping example 22c.007: GLS and TXT lengths don't match
Skipping example 22d.011: GLS and TXT lengths don't match
Skipping example 22d.016: GLS and TXT lengths don't match
Skipping example 22d.019: GLS and TXT lengths don't match
Skipping example 22d.027: GLS and TXT lengths don't match
Skipping example 22d.028: Missing gloss/segmentation
Skipping example 22d.029: GLS and TXT lengths don't match
Skipping example 22d.031: GLS and TXT lengths don't match
Skipping example 22e.005: Missing gloss/segmentation
Skipping example 22e.009: GLS and TXT lengths don't match
Skipping example 22e.017: GLS and TXT lengths don't match
Skipping example 22e.018: Missing gloss/segmentation
Skipping example 22e.031: GLS and TXT lengths don't match
Skipping example 22e.036: GLS and TXT lengths don't match
Skipping example 22e.039: GLS and TXT lengths don't match
Skipping example 22e.043: GLS and TXT lengths don't match
Skipping example 22e.051: GLS and TXT lengths don't match
Skipping example 22e.053: Missing gloss/segmentation
Skipping example 22e.062: GLS and TXT lengths don't match
Skipping example 22e.065: GLS and TXT lengths don't match
Skipping example 22e.067: GLS and TXT lengths don't match
Skipping example 22e.068: GLS and TXT lengths don't match
Skipping example 22e.077: GLS and TXT lengths don't match
Skipping example 22e.083: GLS and TXT lengths don't match
Skipping example 22e.087: Missing gloss/segmentation
Skipping example 22e.088: GLS and TXT lengths don't match
Skipping example 22e.111: Missing gloss/segmentation
Skipping example 22e.126: GLS and TXT lengths don't match
Skipping example 22e.127: GLS and TXT lengths don't match
Skipping example 22e.130: GLS and TXT lengths don't match
Skipping example 22e.132: GLS and TXT lengths don't match
Skipping example 22e.134: Missing gloss/segmentation
Skipping example 22e.149: GLS and TXT lengths don't match
Skipping example 22e.156: GLS and TXT lengths don't match
Skipping example 22e.160: GLS and TXT lengths don't match
Skipping example 22e.161: GLS and TXT lengths don't match
Skipping example 22e.162: GLS and TXT lengths don't match
Skipping example 22e.163: GLS and TXT lengths don't match
Skipping example 22e.170: GLS and TXT lengths don't match
Skipping example 22e.181: GLS and TXT lengths don't match
Skipping example 22e.192: GLS and TXT lengths don't match
Skipping example 22e.193: GLS and TXT lengths don't match
Skipping example 22e.194: GLS and TXT lengths don't match
Skipping example 22e.196: GLS and TXT lengths don't match
Skipping example 22e.199: GLS and TXT lengths don't match
Skipping example 22e.202: GLS and TXT lengths don't match
Skipping example 22e.216: GLS and TXT lengths don't match
Skipping example 22e.217: GLS and TXT lengths don't match
Skipping example 22e.218: GLS and TXT lengths don't match
Skipping example 23a.026: Missing gloss/segmentation
Skipping example 23a.036: GLS and TXT lengths don't match
Skipping example 23a.038: GLS and TXT lengths don't match
Skipping example 23a.053: GLS and TXT lengths don't match
Skipping example 23a.055: GLS and TXT lengths don't match
Skipping example 23a.059: Missing gloss/segmentation
Skipping example 23a.066: GLS and TXT lengths don't match
Skipping example 23a.084: GLS and TXT lengths don't match
Skipping example 23a.095: GLS and TXT lengths don't match
Skipping example 23a.096: GLS and TXT lengths don't match
Skipping example 23a.114: GLS and TXT lengths don't match
Skipping example 23a.119: Missing gloss/segmentation
Skipping example 23a.120: GLS and TXT lengths don't match
Skipping example 23a.122: Missing gloss/segmentation
Skipping example 23a.132: GLS and TXT lengths don't match
Skipping example 23a.134: GLS and TXT lengths don't match
Skipping example 23a.162: GLS and TXT lengths don't match
Skipping example 23a.168: GLS and TXT lengths don't match
Skipping example 23a.203: GLS and TXT lengths don't match
Skipping example 23b.004: GLS and TXT lengths don't match
Skipping example 23b.006: Missing gloss/segmentation
Skipping example 23b.074: GLS and TXT lengths don't match
Skipping example 23b.076: GLS and TXT lengths don't match
Skipping example 23b.077: GLS and TXT lengths don't match
Skipping example 23b.089: GLS and TXT lengths don't match
Skipping example 23b.091: GLS and TXT lengths don't match
Skipping example 23b.092: GLS and TXT lengths don't match
Skipping example 23b.114: GLS and TXT lengths don't match
Skipping example 23b.117: GLS and TXT lengths don't match
Skipping example 23b.131: GLS and TXT lengths don't match
Skipping example 23b.144: GLS and TXT lengths don't match
Skipping example 23b.159: Missing gloss/segmentation
Skipping example 23b.160: GLS and TXT lengths don't match
Skipping example 23b.161: GLS and TXT lengths don't match
Skipping example 23b.178: GLS and TXT lengths don't match
Skipping example 23b.204: Missing gloss/segmentation
Skipping example 23b.209: GLS and TXT lengths don't match
Skipping example 23b.215: Missing gloss/segmentation
Skipping example 23b.216: GLS and TXT lengths don't match
Skipping example 23b.220: GLS and TXT lengths don't match
Skipping example 23b.228: Missing gloss/segmentation
Skipping example 23b.236: GLS and TXT lengths don't match
Skipping example 23b.247: Missing gloss/segmentation
Skipping example 23b.255: GLS and TXT lengths don't match
Skipping example 23b.290: GLS and TXT lengths don't match
Skipping example 23b.307: GLS and TXT lengths don't match
Skipping example 23b.310: GLS and TXT lengths don't match
Skipping example 23b.313: GLS and TXT lengths don't match
Skipping example 23b.315: GLS and TXT lengths don't match
Skipping example 23b.331: GLS and TXT lengths don't match
Skipping example 23b.346: GLS and TXT lengths don't match
Skipping example 23b.347: GLS and TXT lengths don't match
Skipping example 23b.359: GLS and TXT lengths don't match
Skipping example 23b.361: GLS and TXT lengths don't match
Skipping example 23b.367: GLS and TXT lengths don't match
Skipping example 23b.373: Missing gloss/segmentation
Skipping example 23b.378: GLS and TXT lengths don't match
Skipping example 23b.389: GLS and TXT lengths don't match
Skipping example 23b.406: Missing gloss/segmentation
Skipping example 24a.003: GLS and TXT lengths don't match
Skipping example 24a.022: GLS and TXT lengths don't match
Skipping example 24a.047: GLS and TXT lengths don't match
Skipping example 24a.054: GLS and TXT lengths don't match
Skipping example 24a.056: GLS and TXT lengths don't match
Skipping example 24a.060: Missing gloss/segmentation
Skipping example 24a.063: GLS and TXT lengths don't match
Skipping example 24a.068: GLS and TXT lengths don't match
Skipping example 24a.090: GLS and TXT lengths don't match
Skipping example 24a.099: GLS and TXT lengths don't match
Skipping example 24a.103: GLS and TXT lengths don't match
Skipping example 24a.104: GLS and TXT lengths don't match
Skipping example 24a.108: Missing gloss/segmentation
Skipping example 24a.113: GLS and TXT lengths don't match
Skipping example 24a.125: GLS and TXT lengths don't match
Skipping example 24a.131: GLS and TXT lengths don't match
Skipping example 24a.139: Missing gloss/segmentation
Skipping example 24a.146: GLS and TXT lengths don't match
Skipping example 24a.153: GLS and TXT lengths don't match
Skipping example 24a.157: Missing gloss/segmentation
Skipping example 24a.159: GLS and TXT lengths don't match
Skipping example 24a.161: Missing gloss/segmentation
Skipping example 24a.163: GLS and TXT lengths don't match
Skipping example 24a.189: Missing gloss/segmentation
Skipping example 24a.193: GLS and TXT lengths don't match
Skipping example 24a.199: GLS and TXT lengths don't match
Skipping example 24a.202: Missing gloss/segmentation
Skipping example 24a.204: GLS and TXT lengths don't match
Skipping example 24a.227: GLS and TXT lengths don't match
Skipping example 24a.239: GLS and TXT lengths don't match
Skipping example 24a.250: GLS and TXT lengths don't match
Skipping example 24a.251: GLS and TXT lengths don't match
Skipping example 24a.252: GLS and TXT lengths don't match
Skipping example 24a.253: Missing gloss/segmentation
Skipping example 24a.254: GLS and TXT lengths don't match
Skipping example 24a.255: GLS and TXT lengths don't match
Skipping example 24b.005: GLS and TXT lengths don't match
Skipping example 24b.019: GLS and TXT lengths don't match
Skipping example 24b.022: GLS and TXT lengths don't match
Skipping example 24b.037: GLS and TXT lengths don't match
Skipping example 24b.042: GLS and TXT lengths don't match
Skipping example 24b.043: Missing gloss/segmentation
Skipping example 24b.055: GLS and TXT lengths don't match
Skipping example 24b.059: GLS and TXT lengths don't match
Skipping example 24b.061: GLS and TXT lengths don't match
Skipping example 24b.097: Missing gloss/segmentation
Skipping example 24b.102: GLS and TXT lengths don't match
Skipping example 24b.109: Missing gloss/segmentation
Skipping example 24b.142: GLS and TXT lengths don't match
Skipping example 24b.143: Missing gloss/segmentation
Skipping example 24c.001: Missing gloss/segmentation
Skipping example 24c.006: GLS and TXT lengths don't match
Skipping example 24c.007: GLS and TXT lengths don't match
Skipping example 24c.014: GLS and TXT lengths don't match
Skipping example 24c.035: GLS and TXT lengths don't match
Skipping example 24c.036: GLS and TXT lengths don't match
Skipping example 24c.038: GLS and TXT lengths don't match
Skipping example 24c.061: GLS and TXT lengths don't match
Skipping example 24c.067: GLS and TXT lengths don't match
Skipping example 24c.068: GLS and TXT lengths don't match
Skipping example 24c.093: GLS and TXT lengths don't match
Skipping example 24c.103: Missing gloss/segmentation
Skipping example 24c.106: Missing gloss/segmentation
Skipping example 24c.141: GLS and TXT lengths don't match
Skipping example 24c.145: GLS and TXT lengths don't match
Skipping example 24c.146: GLS and TXT lengths don't match
Skipping example 24c.147: Missing gloss/segmentation
Skipping example 24c.150: Missing gloss/segmentation
Skipping example 24c.152: GLS and TXT lengths don't match
Skipping example 24c.157: GLS and TXT lengths don't match
Skipping example 25a.014: GLS and TXT lengths don't match
Skipping example 25a.025: GLS and TXT lengths don't match
Skipping example 25a.034: GLS and TXT lengths don't match
Skipping example 25a.037: GLS and TXT lengths don't match
Skipping example 25a.043: GLS and TXT lengths don't match
Skipping example 25a.047: GLS and TXT lengths don't match
Skipping example 25a.052: GLS and TXT lengths don't match
Skipping example 25a.054: GLS and TXT lengths don't match
Skipping example 25a.063: GLS and TXT lengths don't match
Skipping example 25a.066: GLS and TXT lengths don't match
Skipping example 25a.069: Missing gloss/segmentation
Skipping example 25a.079: Missing gloss/segmentation
Skipping example 25a.097: GLS and TXT lengths don't match
Skipping example 25a.102: Missing gloss/segmentation
Skipping example 25a.103: GLS and TXT lengths don't match
Skipping example 25a.109: GLS and TXT lengths don't match
Skipping example 25a.119: GLS and TXT lengths don't match
Skipping example 25a.121: GLS and TXT lengths don't match
Skipping example 25a.124: GLS and TXT lengths don't match
Skipping example 25a.134: Missing gloss/segmentation
Skipping example 25a.139: GLS and TXT lengths don't match
Skipping example 25a.151: GLS and TXT lengths don't match
Skipping example 25a.156: GLS and TXT lengths don't match
Skipping example 25a.170: GLS and TXT lengths don't match
Skipping example 25a.172: GLS and TXT lengths don't match
Skipping example 25a.181: Missing gloss/segmentation
Skipping example 25a.192: GLS and TXT lengths don't match
Skipping example 25a.210: GLS and TXT lengths don't match
Skipping example 25a.214: GLS and TXT lengths don't match
Skipping example 25a.239: GLS and TXT lengths don't match
Skipping example 25a.247: GLS and TXT lengths don't match
Skipping example 25a.263: Missing gloss/segmentation
Skipping example 25a.277: GLS and TXT lengths don't match
Skipping example 25b.023: GLS and TXT lengths don't match
Skipping example 25b.027: GLS and TXT lengths don't match
Skipping example 25b.034: GLS and TXT lengths don't match
Skipping example 25b.039: GLS and TXT lengths don't match
Skipping example 25b.054: GLS and TXT lengths don't match
Skipping example 25b.056: Missing gloss/segmentation
Skipping example 25b.063: Missing gloss/segmentation
Skipping example 25b.065: GLS and TXT lengths don't match
Skipping example 25b.076: Missing gloss/segmentation
Skipping example 25b.077: GLS and TXT lengths don't match
Skipping example 25b.080: GLS and TXT lengths don't match
Skipping example 25b.103: Missing gloss/segmentation
Skipping example 25b.110: GLS and TXT lengths don't match
Skipping example 25b.112: GLS and TXT lengths don't match
Skipping example 25b.130: GLS and TXT lengths don't match
Skipping example 25b.131: GLS and TXT lengths don't match
Skipping example 25b.136: GLS and TXT lengths don't match
Skipping example 25b.137: GLS and TXT lengths don't match
Skipping example 25b.141: GLS and TXT lengths don't match
Skipping example 25b.143: GLS and TXT lengths don't match
Skipping example 25b.150: GLS and TXT lengths don't match
Skipping example 25b.153: Missing gloss/segmentation
Skipping example 25b.154: GLS and TXT lengths don't match
Skipping example 25b.159: GLS and TXT lengths don't match
Skipping example 25b.170: GLS and TXT lengths don't match
Skipping example 25b.187: GLS and TXT lengths don't match
Skipping example 25b.194: GLS and TXT lengths don't match
Skipping example 25b.196: GLS and TXT lengths don't match
Skipping example 25b.199: GLS and TXT lengths don't match
Skipping example 25b.206: Missing gloss/segmentation
Skipping example 25b.207: Missing gloss/segmentation
Skipping example 25b.210: GLS and TXT lengths don't match
Skipping example 25b.215: GLS and TXT lengths don't match
Skipping example 25b.218: GLS and TXT lengths don't match
Skipping example 25b.223: GLS and TXT lengths don't match
Skipping example 25b.226: Missing gloss/segmentation
Skipping example 25b.234: GLS and TXT lengths don't match
Skipping example 25b.237: GLS and TXT lengths don't match
Skipping example 25b.242: GLS and TXT lengths don't match
Skipping example 25b.247: GLS and TXT lengths don't match
Skipping example 25b.257: GLS and TXT lengths don't match
Skipping example 25b.258: GLS and TXT lengths don't match
Skipping example 25b.259: Missing gloss/segmentation
Skipping example 25b.262: GLS and TXT lengths don't match
Skipping example 25b.273: GLS and TXT lengths don't match
Skipping example 25b.275: GLS and TXT lengths don't match
Skipping example 25b.280: GLS and TXT lengths don't match
Skipping example 25c.029: GLS and TXT lengths don't match
Skipping example 25c.031: Missing gloss/segmentation
Skipping example 25c.040: GLS and TXT lengths don't match
Skipping example 25c.046: GLS and TXT lengths don't match
Skipping example 25c.049: GLS and TXT lengths don't match
Skipping example 25c.052: GLS and TXT lengths don't match
Skipping example 25c.053: GLS and TXT lengths don't match
Skipping example 25c.057: GLS and TXT lengths don't match
Skipping example 25c.063: GLS and TXT lengths don't match
Skipping example 25c.065: GLS and TXT lengths don't match
Skipping example 25c.069: GLS and TXT lengths don't match
Skipping example 25c.073: GLS and TXT lengths don't match
Skipping example 25c.076: GLS and TXT lengths don't match
Skipping example 25c.093: GLS and TXT lengths don't match
Skipping example 25c.101: GLS and TXT lengths don't match
Skipping example 25c.104: GLS and TXT lengths don't match
Skipping example 25c.105: GLS and TXT lengths don't match
Skipping example 25c.124: GLS and TXT lengths don't match
Skipping example 25c.128: GLS and TXT lengths don't match
Skipping example 25c.142: Missing gloss/segmentation
Skipping example 25c.155: GLS and TXT lengths don't match
Skipping example 25c.159: Missing gloss/segmentation
Skipping example 25c.193: GLS and TXT lengths don't match
Skipping example 25c.195: GLS and TXT lengths don't match
Skipping example 25c.196: GLS and TXT lengths don't match
Skipping example 25c.220: Missing gloss/segmentation
Skipping example 25c.241: GLS and TXT lengths don't match
Skipping example 25c.249: GLS and TXT lengths don't match
Skipping example 25c.251: GLS and TXT lengths don't match
Skipping example 25c.256: Missing gloss/segmentation
Skipping example 25c.309: GLS and TXT lengths don't match
Skipping example 25c.317: GLS and TXT lengths don't match
Skipping example 25c.322: GLS and TXT lengths don't match
Skipping example 25c.326: GLS and TXT lengths don't match
Skipping example 25c.337: Missing gloss/segmentation
Skipping example 25c.341: GLS and TXT lengths don't match
Skipping example 25d.003: GLS and TXT lengths don't match
Skipping example 25d.027: Missing gloss/segmentation
Skipping example 25d.039: GLS and TXT lengths don't match
Skipping example 25e.001: GLS and TXT lengths don't match
Skipping example 25e.005: GLS and TXT lengths don't match
Skipping example 25e.011: Missing gloss/segmentation
Skipping example 25e.014: GLS and TXT lengths don't match
Skipping example 25e.015: GLS and TXT lengths don't match
Skipping example 25e.024: GLS and TXT lengths don't match
Skipping example 25e.027: GLS and TXT lengths don't match
Skipping example 25e.036: GLS and TXT lengths don't match
Skipping example 25e.037: GLS and TXT lengths don't match
Skipping example 25e.039: Missing gloss/segmentation
Skipping example 25e.041: GLS and TXT lengths don't match
Skipping example 25e.045: Missing gloss/segmentation
Skipping example 25e.047: GLS and TXT lengths don't match
Skipping example 25e.048: GLS and TXT lengths don't match
Skipping example 25e.049: GLS and TXT lengths don't match
Skipping example 25e.059: Missing gloss/segmentation
Skipping example 25e.061: GLS and TXT lengths don't match
Skipping example 25e.061: Missing gloss/segmentation
Skipping example 25e.071: GLS and TXT lengths don't match
Skipping example 25e.073: GLS and TXT lengths don't match
Skipping example 25e.074: GLS and TXT lengths don't match
Skipping example 25e.078: GLS and TXT lengths don't match
Skipping example 25e.080: Missing gloss/segmentation
Skipping example 25e.084: Missing gloss/segmentation
Skipping example 25e.094: Missing gloss/segmentation
Skipping example 25e.100: GLS and TXT lengths don't match
Skipping example 25e.120: GLS and TXT lengths don't match
Skipping example 25e.121: GLS and TXT lengths don't match
Skipping example 25e.129: GLS and TXT lengths don't match
Skipping example 25e.133: GLS and TXT lengths don't match
Skipping example 25e.134: GLS and TXT lengths don't match
Skipping example 25e.168: GLS and TXT lengths don't match
Skipping example 25e.169: GLS and TXT lengths don't match
Skipping example 25f.002: GLS and TXT lengths don't match
Skipping example 25f.005: GLS and TXT lengths don't match
Skipping example 25f.010: Missing gloss/segmentation
Skipping example 25f.018: GLS and TXT lengths don't match
Skipping example 25f.027: Missing gloss/segmentation
Skipping example 25f.032: GLS and TXT lengths don't match
Skipping example 25f.033: GLS and TXT lengths don't match
Skipping example 25f.034: GLS and TXT lengths don't match
Skipping example 25f.038: GLS and TXT lengths don't match
Skipping example 25f.039: GLS and TXT lengths don't match
Skipping example 25f.044: GLS and TXT lengths don't match
Skipping example 25f.045: GLS and TXT lengths don't match
Skipping example 25f.047: GLS and TXT lengths don't match
Skipping example 25f.049: Missing gloss/segmentation
Skipping example 25f.053: GLS and TXT lengths don't match
Skipping example 25f.061: GLS and TXT lengths don't match
Skipping example 25f.066: Missing gloss/segmentation
Skipping example 25f.077: GLS and TXT lengths don't match
Skipping example 25f.078: GLS and TXT lengths don't match
Skipping example 26a.003: GLS and TXT lengths don't match
Skipping example 26a.007: GLS and TXT lengths don't match
Skipping example 26a.011: GLS and TXT lengths don't match
Skipping example 26a.012: GLS and TXT lengths don't match
Skipping example 26a.040: GLS and TXT lengths don't match
Skipping example 26a.050: Missing gloss/segmentation
Skipping example 26a.058: GLS and TXT lengths don't match
Skipping example 26a.060: GLS and TXT lengths don't match
Skipping example 26a.062: GLS and TXT lengths don't match
Skipping example 26a.068: GLS and TXT lengths don't match
Skipping example 26a.074: GLS and TXT lengths don't match
Skipping example 26a.078: GLS and TXT lengths don't match
Skipping example 26a.084: GLS and TXT lengths don't match
Skipping example 26a.112: GLS and TXT lengths don't match
Skipping example 26a.114: GLS and TXT lengths don't match
Skipping example 26a.115: Missing gloss/segmentation
Skipping example 26a.118: Missing gloss/segmentation
Skipping example 26a.125: GLS and TXT lengths don't match
Skipping example 26a.126: GLS and TXT lengths don't match
Skipping example 26a.128: GLS and TXT lengths don't match
Skipping example 26a.130: GLS and TXT lengths don't match
Skipping example 26a.140: GLS and TXT lengths don't match
Skipping example 26a.141: GLS and TXT lengths don't match
Skipping example 26a.146: GLS and TXT lengths don't match
Skipping example 26a.148: Missing gloss/segmentation
Skipping example 26a.157: GLS and TXT lengths don't match
Skipping example 26a.161: GLS and TXT lengths don't match
Skipping example 26a.165: GLS and TXT lengths don't match
Skipping example 26a.177: GLS and TXT lengths don't match
Skipping example 26a.187: Missing gloss/segmentation
Skipping example 26a.196: Missing gloss/segmentation
Skipping example 26a.202: Missing gloss/segmentation
Skipping example 26a.209: Missing gloss/segmentation
Skipping example 26a.210: GLS and TXT lengths don't match
Skipping example 26a.234: GLS and TXT lengths don't match
Skipping example 26a.250: GLS and TXT lengths don't match
Skipping example 26a.252: GLS and TXT lengths don't match
Skipping example 26a.258: GLS and TXT lengths don't match
Skipping example 26a.260: GLS and TXT lengths don't match
Skipping example 26a.268: GLS and TXT lengths don't match
Skipping example 26a.269: GLS and TXT lengths don't match
Skipping example 26a.278: Missing gloss/segmentation
Skipping example 26a.280: GLS and TXT lengths don't match
Skipping example 26a.294: Missing gloss/segmentation
Skipping example 26a.295: GLS and TXT lengths don't match
Skipping example 26a.299: GLS and TXT lengths don't match
Skipping example 26a.309: GLS and TXT lengths don't match
Skipping example 26a.310: GLS and TXT lengths don't match
Skipping example 26a.327: GLS and TXT lengths don't match
Skipping example 26a.333: GLS and TXT lengths don't match
Skipping example 26a.345: GLS and TXT lengths don't match
Skipping example 26a.360: GLS and TXT lengths don't match
Skipping example 26a.375: GLS and TXT lengths don't match
Skipping example 26b.007: Missing gloss/segmentation
Skipping example 26b.022: Missing gloss/segmentation
Skipping example 26b.027: GLS and TXT lengths don't match
Skipping example 26b.034: Missing gloss/segmentation
Skipping example 26b.052: GLS and TXT lengths don't match
Skipping example 26b.056: GLS and TXT lengths don't match
Skipping example 26b.059: GLS and TXT lengths don't match
Skipping example 26b.060: GLS and TXT lengths don't match
Skipping example 26b.063: GLS and TXT lengths don't match
Skipping example 26b.066: Missing gloss/segmentation
Skipping example 26b.067: GLS and TXT lengths don't match
Skipping example 26b.077: Missing gloss/segmentation
Skipping example 26b.079: GLS and TXT lengths don't match
Skipping example 26b.084: Missing gloss/segmentation
Skipping example 26b.094: GLS and TXT lengths don't match
Skipping example 26b.095: GLS and TXT lengths don't match
Skipping example 26b.096: GLS and TXT lengths don't match
Skipping example 26b.109: GLS and TXT lengths don't match
Skipping example 26b.114: GLS and TXT lengths don't match
Skipping example 26b.120: Missing gloss/segmentation
Skipping example 26b.132: GLS and TXT lengths don't match
Skipping example 26b.141: GLS and TXT lengths don't match
Skipping example 26b.142: GLS and TXT lengths don't match
Skipping example 26b.148: GLS and TXT lengths don't match
Skipping example 26b.150: GLS and TXT lengths don't match
Skipping example 26b.153: GLS and TXT lengths don't match
Skipping example 26b.155: Missing gloss/segmentation
Skipping example 26b.158: GLS and TXT lengths don't match
Skipping example 26b.197: GLS and TXT lengths don't match
Skipping example 26b.199: Missing gloss/segmentation
Skipping example 26b.200: Missing gloss/segmentation
Skipping example 26b.201: Missing gloss/segmentation
Skipping example 26b.202: Missing gloss/segmentation
Skipping example 26b.212: GLS and TXT lengths don't match
Skipping example 26b.220: GLS and TXT lengths don't match
Skipping example 26b.232: GLS and TXT lengths don't match
Skipping example 26b.239: GLS and TXT lengths don't match
Skipping example 26c.005: GLS and TXT lengths don't match
Skipping example 26c.010: GLS and TXT lengths don't match
Skipping example 26c.017: GLS and TXT lengths don't match
Skipping example 26c.018: GLS and TXT lengths don't match
Skipping example 26c.029: GLS and TXT lengths don't match
Skipping example 26c.033: GLS and TXT lengths don't match
Skipping example 26c.035: GLS and TXT lengths don't match
Skipping example 26c.050: GLS and TXT lengths don't match
Skipping example 26c.053: GLS and TXT lengths don't match
Skipping example 26c.058: Missing gloss/segmentation
Skipping example 26c.059: GLS and TXT lengths don't match
Skipping example 26c.061: GLS and TXT lengths don't match
Skipping example 26c.062: GLS and TXT lengths don't match
Skipping example 26c.070: GLS and TXT lengths don't match
Skipping example 26c.073: GLS and TXT lengths don't match
Skipping example 26c.075: GLS and TXT lengths don't match
Skipping example 26c.081: GLS and TXT lengths don't match
Skipping example 26c.095: GLS and TXT lengths don't match
Skipping example 26c.096: GLS and TXT lengths don't match
Skipping example 26c.098: GLS and TXT lengths don't match
Skipping example 26c.104: GLS and TXT lengths don't match
Skipping example 26c.107: Missing gloss/segmentation
Skipping example 26c.108: GLS and TXT lengths don't match
Skipping example 26d.006: GLS and TXT lengths don't match
Skipping example 26d.010: GLS and TXT lengths don't match
Skipping example 26d.014: Missing gloss/segmentation
Skipping example 26d.015: GLS and TXT lengths don't match
Skipping example 26d.016: GLS and TXT lengths don't match
Skipping example 26d.027: GLS and TXT lengths don't match
Skipping example 26d.028: GLS and TXT lengths don't match
Skipping example 26d.030: GLS and TXT lengths don't match
Skipping example 26d.031: GLS and TXT lengths don't match
Skipping example 26d.035: GLS and TXT lengths don't match
Skipping example 26d.038: GLS and TXT lengths don't match
Skipping example 26d.049: GLS and TXT lengths don't match
Skipping example 26d.051: GLS and TXT lengths don't match
Skipping example 26d.053: GLS and TXT lengths don't match
Skipping example 26d.061: GLS and TXT lengths don't match
Skipping example 26d.062: GLS and TXT lengths don't match
Skipping example 26d.063: Missing gloss/segmentation
Skipping example 26d.065: GLS and TXT lengths don't match
Skipping example 26d.072: Missing gloss/segmentation
Skipping example 26d.073: GLS and TXT lengths don't match
Skipping example 26d.082: GLS and TXT lengths don't match
Skipping example 26d.089: GLS and TXT lengths don't match
Skipping example 26d.090: GLS and TXT lengths don't match
Skipping example 26d.094: GLS and TXT lengths don't match
Skipping example 26d.096: GLS and TXT lengths don't match
Skipping example 26d.098: Missing gloss/segmentation
Skipping example 26d.111: GLS and TXT lengths don't match
Skipping example 26d.112: GLS and TXT lengths don't match
Skipping example 26d.114: GLS and TXT lengths don't match
Skipping example 26d.128: GLS and TXT lengths don't match
Skipping example 27.005: GLS and TXT lengths don't match
Skipping example 27.01: GLS and TXT lengths don't match
Skipping example 27.016: GLS and TXT lengths don't match
Skipping example 27.019: GLS and TXT lengths don't match
Skipping example 27.036: Missing gloss/segmentation
Skipping example 27.043: GLS and TXT lengths don't match
Skipping example 27.044: GLS and TXT lengths don't match
Skipping example 27.048: GLS and TXT lengths don't match
Skipping example 27.052: GLS and TXT lengths don't match
Skipping example 27.053: GLS and TXT lengths don't match
Skipping example 27.06: GLS and TXT lengths don't match
Skipping example 27.067: GLS and TXT lengths don't match
Skipping example 27.069: GLS and TXT lengths don't match
Skipping example 27.077: Missing gloss/segmentation
Skipping example 27.086: GLS and TXT lengths don't match
Skipping example 27.087: GLS and TXT lengths don't match
Skipping example 27.089: GLS and TXT lengths don't match
Skipping example 27.093: GLS and TXT lengths don't match
Skipping example 28a.006: GLS and TXT lengths don't match
Skipping example 28a.016: GLS and TXT lengths don't match
Skipping example 28a.024: GLS and TXT lengths don't match
Skipping example 28a.026: GLS and TXT lengths don't match
Skipping example 28a.029: GLS and TXT lengths don't match
Skipping example 28a.055: GLS and TXT lengths don't match
Skipping example 28a.078: GLS and TXT lengths don't match
Skipping example 28a.086: GLS and TXT lengths don't match
Skipping example 28a.087: GLS and TXT lengths don't match
Skipping example 28a.088: GLS and TXT lengths don't match
Skipping example 28a.126: Missing gloss/segmentation
Skipping example 28a.174: GLS and TXT lengths don't match
Skipping example 28a.175: GLS and TXT lengths don't match
Skipping example 28a.218: GLS and TXT lengths don't match
Skipping example 28a.221: GLS and TXT lengths don't match
Skipping example 28a.236: GLS and TXT lengths don't match
Skipping example 28d.001: GLS and TXT lengths don't match
Skipping example 28e.007: GLS and TXT lengths don't match
Skipping example 28e.008: GLS and TXT lengths don't match
Skipping example 28e.017: GLS and TXT lengths don't match
Skipping example 28e.036: GLS and TXT lengths don't match
Skipping example 28e.056: GLS and TXT lengths don't match
Skipping example 28e.064: GLS and TXT lengths don't match
Skipping example 28e.071: GLS and TXT lengths don't match
Skipping example 28e.072: GLS and TXT lengths don't match
Skipping example 28e.075: Missing gloss/segmentation
Skipping example 28e.098: GLS and TXT lengths don't match
Skipping example 28e.099: GLS and TXT lengths don't match
Skipping example 28e.100: GLS and TXT lengths don't match
Skipping example 28e.108: Missing gloss/segmentation
Skipping example 28e.119: GLS and TXT lengths don't match
Skipping example 28e.120: GLS and TXT lengths don't match
Skipping example 28e.124: GLS and TXT lengths don't match
Skipping example 28e.126: GLS and TXT lengths don't match
Skipping example 28e.129: GLS and TXT lengths don't match
Skipping example 28e.133: GLS and TXT lengths don't match
Skipping example 28e.145: GLS and TXT lengths don't match
Skipping example 28e.157: GLS and TXT lengths don't match
Skipping example 28e.160: GLS and TXT lengths don't match
Skipping example 28e.165: Missing gloss/segmentation
Skipping example 28e.170: GLS and TXT lengths don't match
Skipping example 28f.023: GLS and TXT lengths don't match
Skipping example 28f.047: GLS and TXT lengths don't match
Skipping example 28f.048: Missing gloss/segmentation
Skipping example 28f.073: GLS and TXT lengths don't match
Skipping example 28f.074: GLS and TXT lengths don't match
Skipping example 28g.015: GLS and TXT lengths don't match
Skipping example 28g.023: GLS and TXT lengths don't match
Skipping example 28g.024: GLS and TXT lengths don't match
Skipping example 28g.026: GLS and TXT lengths don't match
Skipping example 28g.028: GLS and TXT lengths don't match
Skipping example 28g.040: GLS and TXT lengths don't match
Skipping example 28g.055: GLS and TXT lengths don't match
Skipping example 28g.058: GLS and TXT lengths don't match
Skipping example 28g.063: GLS and TXT lengths don't match
Skipping example 28g.074: GLS and TXT lengths don't match
Skipping example 28g.091: GLS and TXT lengths don't match
Skipping example 28g.097: Missing gloss/segmentation
Skipping example 28g.102: GLS and TXT lengths don't match
Skipping example 28g.111: GLS and TXT lengths don't match
Skipping example 28g.112: GLS and TXT lengths don't match
Skipping example 28g.125: GLS and TXT lengths don't match
Skipping example 28g.127: GLS and TXT lengths don't match
Skipping example 28g.128: GLS and TXT lengths don't match
Skipping example 28g.129: Missing gloss/segmentation
Skipping example 28g.137: GLS and TXT lengths don't match
Skipping example 28g.141: GLS and TXT lengths don't match
Skipping example 28g.142: GLS and TXT lengths don't match
Skipping example 28g.197: GLS and TXT lengths don't match
Skipping example 28g.202: GLS and TXT lengths don't match
Skipping example 28g.213: GLS and TXT lengths don't match
Skipping example 28g.217: GLS and TXT lengths don't match
Skipping example 28g.218: GLS and TXT lengths don't match
Skipping example 28g.223: GLS and TXT lengths don't match
Skipping example 28g.227: GLS and TXT lengths don't match
Skipping example 28g.233: GLS and TXT lengths don't match
Skipping example 28g.234: GLS and TXT lengths don't match
Skipping example 28g.284: GLS and TXT lengths don't match
Skipping example 28g.288: Missing gloss/segmentation
Skipping example 28g.293: GLS and TXT lengths don't match
Skipping example 28g.295: GLS and TXT lengths don't match
Skipping example 28g.297: GLS and TXT lengths don't match
Skipping example 28g.302: GLS and TXT lengths don't match
Skipping example 30b.004: GLS and TXT lengths don't match
Skipping example 30b.013: Missing gloss/segmentation
Skipping example 30b.020: GLS and TXT lengths don't match
Skipping example 30g.002: GLS and TXT lengths don't match
Skipping example 30g.005: GLS and TXT lengths don't match
Skipping example 30g.009: GLS and TXT lengths don't match
Skipping example 31c.008: GLS and TXT lengths don't match
Skipping example 31e.009: GLS and TXT lengths don't match
Skipping example 31e.016: GLS and TXT lengths don't match
Skipping example 31e.021: GLS and TXT lengths don't match
Skipping example 31e.028: GLS and TXT lengths don't match
Skipping example 31e.039: GLS and TXT lengths don't match
Skipping example 31e.047: GLS and TXT lengths don't match
Skipping example 31e.050: Missing gloss/segmentation
Skipping example 31e.072: GLS and TXT lengths don't match
Skipping example 31f.002: GLS and TXT lengths don't match
Skipping example 31f.005: GLS and TXT lengths don't match
Skipping example 31f.007: GLS and TXT lengths don't match
Skipping example 31f.013: Missing gloss/segmentation
Skipping example 31f.018: GLS and TXT lengths don't match
Skipping example 31f.020: GLS and TXT lengths don't match
Skipping example 31g.004: GLS and TXT lengths don't match
Skipping example 31g.007: Missing gloss/segmentation
Skipping example 31g.017: GLS and TXT lengths don't match
Skipping example 31g.038: GLS and TXT lengths don't match
Skipping example 32a.004: GLS and TXT lengths don't match
Skipping example 32a.021: Missing gloss/segmentation
Skipping example 32a.050: GLS and TXT lengths don't match
Skipping example 32a.092: GLS and TXT lengths don't match
Skipping example 32a.109: GLS and TXT lengths don't match
Skipping example 32a.124: Missing gloss/segmentation
Skipping example 32a.128: Missing gloss/segmentation
Skipping example 32a.166: GLS and TXT lengths don't match
Skipping example 32a.174: GLS and TXT lengths don't match
Skipping example 32b.002: GLS and TXT lengths don't match
Skipping example 32b.012: GLS and TXT lengths don't match
Skipping example 32b.029: GLS and TXT lengths don't match
Skipping example 32b.030: Missing gloss/segmentation
Skipping example 32b.042: GLS and TXT lengths don't match
Skipping example 32b.057: GLS and TXT lengths don't match
Skipping example 32b.073: GLS and TXT lengths don't match
Skipping example 32b.089: Missing gloss/segmentation
Skipping example 32c.016: Missing gloss/segmentation
Skipping example 32c.028: GLS and TXT lengths don't match
Skipping example 32c.029: GLS and TXT lengths don't match
Skipping example 32d.054: Missing gloss/segmentation
Skipping example 32d.068: GLS and TXT lengths don't match
Skipping example 32e.007: Missing gloss/segmentation
Skipping example 32e.047: GLS and TXT lengths don't match
Skipping example 32f.056: GLS and TXT lengths don't match
Skipping example 34a.002: GLS and TXT lengths don't match
Skipping example 34a.012: GLS and TXT lengths don't match
Skipping example 34a.013: GLS and TXT lengths don't match
Skipping example 34a.014: Missing gloss/segmentation
Skipping example 34a.025: GLS and TXT lengths don't match
Skipping example 34a.026: GLS and TXT lengths don't match
Skipping example 34a.032: Missing gloss/segmentation
Skipping example 34a.043: Missing gloss/segmentation
Skipping example 34a.045: GLS and TXT lengths don't match
Skipping example 34a.063: GLS and TXT lengths don't match
Skipping example 34a.073: GLS and TXT lengths don't match
Skipping example 34a.075: GLS and TXT lengths don't match
Skipping example 34a.091: GLS and TXT lengths don't match
Skipping example 34a.105: Missing gloss/segmentation
Skipping example 34a.114: GLS and TXT lengths don't match
Skipping example 34a.149: Missing gloss/segmentation
Skipping example 34a.153: GLS and TXT lengths don't match
Skipping example 34a.157: GLS and TXT lengths don't match
Skipping example 34b.003: GLS and TXT lengths don't match
Skipping example 34b.007: GLS and TXT lengths don't match
Skipping example 34b.011: GLS and TXT lengths don't match
Skipping example 34b.028: Missing gloss/segmentation
Skipping example 34b.029: GLS and TXT lengths don't match
Skipping example 34b.033: GLS and TXT lengths don't match
Skipping example 34b.041: GLS and TXT lengths don't match
Skipping example 34b.055: GLS and TXT lengths don't match
Skipping example 34b.056: GLS and TXT lengths don't match
Skipping example 34b.069: GLS and TXT lengths don't match
Skipping example 34b.089: GLS and TXT lengths don't match
Skipping example 34b.130: GLS and TXT lengths don't match
Skipping example 34b.133: GLS and TXT lengths don't match
Skipping example 34b.139: GLS and TXT lengths don't match
Skipping example 34b.156: GLS and TXT lengths don't match
Skipping example 34b.168: GLS and TXT lengths don't match
Skipping example 34b.180: GLS and TXT lengths don't match
Skipping example 34b.195: GLS and TXT lengths don't match
Skipping example 34b.197: GLS and TXT lengths don't match
Skipping example 34b.198: GLS and TXT lengths don't match
Skipping example 34b.217: GLS and TXT lengths don't match
Skipping example 34b.219: GLS and TXT lengths don't match
Skipping example 34b.222: GLS and TXT lengths don't match
Skipping example 34b.252: GLS and TXT lengths don't match
Skipping example 34c.010: GLS and TXT lengths don't match
Skipping example 34c.024: GLS and TXT lengths don't match
Skipping example 34c.026: GLS and TXT lengths don't match
Skipping example 34c.028: GLS and TXT lengths don't match
Skipping example 34c.031: GLS and TXT lengths don't match
Skipping example 34c.036: Missing gloss/segmentation
Skipping example 34c.069: GLS and TXT lengths don't match
Skipping example 34c.077: GLS and TXT lengths don't match
Skipping example 34c.103: GLS and TXT lengths don't match
Skipping example 34c.112: GLS and TXT lengths don't match
Skipping example 34c.113: GLS and TXT lengths don't match
Skipping example 34c.115: Missing gloss/segmentation
Skipping example 34c.126: GLS and TXT lengths don't match
Skipping example 34c.139: Missing gloss/segmentation
Skipping example 34c.146: GLS and TXT lengths don't match
Skipping example 34c.152: GLS and TXT lengths don't match
Skipping example 34c.154: Missing gloss/segmentation
Skipping example 34c.155: Missing gloss/segmentation
Skipping example 34c.165: GLS and TXT lengths don't match
Skipping example 34c.166: GLS and TXT lengths don't match
Skipping example 34d.003: GLS and TXT lengths don't match
Skipping example 34d.004: GLS and TXT lengths don't match
Skipping example 34d.007: Missing gloss/segmentation
Skipping example 34d.015: GLS and TXT lengths don't match
Skipping example 34d.028: GLS and TXT lengths don't match
Skipping example 34d.035: GLS and TXT lengths don't match
Skipping example 34d.036: GLS and TXT lengths don't match
Skipping example 34d.042: GLS and TXT lengths don't match
Skipping example 34d.043: Missing gloss/segmentation
Skipping example 34d.048: GLS and TXT lengths don't match
Skipping example 34d.049: GLS and TXT lengths don't match
Skipping example 34d.050: GLS and TXT lengths don't match
Skipping example 34d.051: GLS and TXT lengths don't match
Skipping example 34d.059: GLS and TXT lengths don't match
Skipping example 34d.070: GLS and TXT lengths don't match
Skipping example 34d.072: GLS and TXT lengths don't match
[...]
Skipping example LUKE1.137: MOR, GLS and TXT lengths don't match
Skipping example LUKE1.139: Missing gloss/segmentation
Skipping example LUKE1.142: MOR, GLS and TXT lengths don't match
Skipping example LUKE1.144: MOR, GLS and TXT lengths don't match
Skipping example LUKE1.150: MOR, GLS and TXT lengths don't match
Skipping example LUKE20.003: number of morphemes in 'beexookeenenino' doesn't match 'high-ranking.persons'.
Skipping example LUKE20.006: MOR, GLS and TXT lengths don't match
Skipping example LUKE20.021: MOR, GLS and TXT lengths don't match
Skipping example LUKE20.023: MOR, GLS and TXT lengths don't match
Skipping example LUKE20.038: MOR, GLS and TXT lengths don't match
Skipping example LUKE20.046: MOR, GLS and TXT lengths don't match
Skipping example LUKE20.071: number of morphemes in 'hi-noohowoho' doesn't match '3S-younger.same-sex.sibling'.
Skipping example LUKE20.072: number of morphemes in 'hi-noohowoho' doesn't match '3S-younger.same-sex.sibling'.
Skipping example LUKE20.076: MOR, GLS and TXT lengths don't match
Skipping example LUKE20.079: MOR, GLS and TXT lengths don't match
Skipping example LUKE20.080: MOR, GLS and TXT lengths don't match
Skipping example LUKE20.092: MOR, GLS and TXT lengths don't match
Skipping example LUKE20.095: MOR, GLS and TXT lengths don't match
Skipping example LUKE20.105: Missing gloss/segmentation
Skipping example LUKE20.116: MOR, GLS and TXT lengths don't match
Skipping example LUKE21.006: MOR, GLS and TXT lengths don't match
Skipping example LUKE21.010: MOR, GLS and TXT lengths don't match
Skipping example LUKE21.011: MOR, GLS and TXT lengths don't match
Skipping example LUKE21.012: MOR, GLS and TXT lengths don't match
Skipping example LUKE21.018: MOR, GLS and TXT lengths don't match
Skipping example LUKE21.020: MOR, GLS and TXT lengths don't match
Skipping example LUKE21.022: MOR, GLS and TXT lengths don't match
Skipping example LUKE21.038: MOR, GLS and TXT lengths don't match
Skipping example LUKE21.044: MOR, GLS and TXT lengths don't match
Skipping example LUKE21.045: MOR, GLS and TXT lengths don't match
Skipping example LUKE21.058: MOR, GLS and TXT lengths don't match
Skipping example LUKE21.059: MOR, GLS and TXT lengths don't match
Skipping example LUKE21.065: MOR, GLS and TXT lengths don't match
Skipping example LUKE21.069: MOR, GLS and TXT lengths don't match
Skipping example LUKE21.072: MOR, GLS and TXT lengths don't match
Skipping example LUKE21.075: MOR, GLS and TXT lengths don't match
Skipping example LUKE21.087: MOR, GLS and TXT lengths don't match
Skipping example LUKE22.002: MOR, GLS and TXT lengths don't match
Skipping example LUKE22.017: MOR, GLS and TXT lengths don't match
Skipping example LUKE22.022: MOR, GLS and TXT lengths don't match
Skipping example LUKE22.045: MOR, GLS and TXT lengths don't match
Skipping example LUKE22.055: MOR, GLS and TXT lengths don't match
Skipping example LUKE22.073: MOR, GLS and TXT lengths don't match
Skipping example LUKE22.092: MOR, GLS and TXT lengths don't match
Skipping example LUKE22.094: MOR, GLS and TXT lengths don't match
Skipping example LUKE22.099: MOR, GLS and TXT lengths don't match
Skipping example LUKE22.113: number of morphemes in 'beexookeenen-ino' doesn't match 'important/high-ranking.person-OBV.PL'.
Skipping example LUKE22.118: MOR, GLS and TXT lengths don't match
Skipping example LUKE22.133: MOR, GLS and TXT lengths don't match
Skipping example LUKE22.149: number of morphemes in 'beexookeenen-no'' doesn't match 'important/high-ranking.person-NA.PL'.
Skipping example LUKE23.011: Missing gloss/segmentation
Skipping example LUKE23.012: MOR, GLS and TXT lengths don't match
Skipping example LUKE23.018: MOR, GLS and TXT lengths don't match
Skipping example LUKE23.020: MOR, GLS and TXT lengths don't match
Skipping example LUKE23.035: MOR, GLS and TXT lengths don't match
Skipping example LUKE23.036: Missing gloss/segmentation
Skipping example LUKE23.037: MOR, GLS and TXT lengths don't match
Skipping example LUKE23.044: MOR, GLS and TXT lengths don't match
Skipping example LUKE23.053: MOR, GLS and TXT lengths don't match
Skipping example LUKE23.057: MOR, GLS and TXT lengths don't match
Skipping example LUKE23.059: MOR, GLS and TXT lengths don't match
Skipping example LUKE23.067: MOR, GLS and TXT lengths don't match
Skipping example LUKE23.071: MOR, GLS and TXT lengths don't match
Skipping example LUKE23.076: MOR, GLS and TXT lengths don't match
Skipping example LUKE23.085: MOR, GLS and TXT lengths don't match
Skipping example LUKE23.092: MOR, GLS and TXT lengths don't match
Skipping example LUKE23.093: MOR, GLS and TXT lengths don't match
Skipping example LUKE23.095: Missing gloss/segmentation
Skipping example LUKE23.107: MOR, GLS and TXT lengths don't match
Skipping example LUKE23.111: MOR, GLS and TXT lengths don't match
Skipping example LUKE23.114: MOR, GLS and TXT lengths don't match
Skipping example LUKE23.127: MOR, GLS and TXT lengths don't match
Skipping example LUKE24.009: Missing gloss/segmentation
Skipping example LUKE24.044: MOR, GLS and TXT lengths don't match
Skipping example LUKE24.046: MOR, GLS and TXT lengths don't match
Skipping example LUKE24.055: MOR, GLS and TXT lengths don't match
Skipping example LUKE24.067: MOR, GLS and TXT lengths don't match
Skipping example LUKE24.088: MOR, GLS and TXT lengths don't match
Skipping example LUKE24.089: MOR, GLS and TXT lengths don't match
Skipping example LUKE2.011: MOR, GLS and TXT lengths don't match
Skipping example LUKE2.014: MOR, GLS and TXT lengths don't match
Skipping example LUKE2.017: MOR, GLS and TXT lengths don't match
Skipping example LUKE2.041: MOR, GLS and TXT lengths don't match
Skipping example LUKE2.043: MOR, GLS and TXT lengths don't match
Skipping example LUKE2.046: MOR, GLS and TXT lengths don't match
Skipping example LUKE2.050: MOR, GLS and TXT lengths don't match
Skipping example LUKE2.052: MOR, GLS and TXT lengths don't match
Skipping example LUKE2.055: MOR, GLS and TXT lengths don't match
Skipping example LUKE2.060: Missing gloss/segmentation
Skipping example LUKE2.062: MOR, GLS and TXT lengths don't match
Skipping example LUKE2.067: MOR, GLS and TXT lengths don't match
Skipping example LUKE2.068: MOR, GLS and TXT lengths don't match
Skipping example LUKE2.069: MOR, GLS and TXT lengths don't match
Skipping example LUKE2.086: MOR, GLS and TXT lengths don't match
Skipping example LUKE2.089: MOR, GLS and TXT lengths don't match
Skipping example LUKE2.094: MOR, GLS and TXT lengths don't match
Skipping example LUKE2.100: MOR, GLS and TXT lengths don't match
Skipping example LUKE3.005: number of morphemes in 'hi-no-ohowoho'' doesn't match '3S-1S-younger.same-sex.sibling'.
Skipping example LUKE3.010: MOR, GLS and TXT lengths don't match
Skipping example LUKE3.018: MOR, GLS and TXT lengths don't match
Skipping example LUKE3.030: MOR, GLS and TXT lengths don't match
Skipping example LUKE3.041: MOR, GLS and TXT lengths don't match
Skipping example LUKE3.048: MOR, GLS and TXT lengths don't match
Skipping example LUKE3.051: number of morphemes in 'hi-no-ohowoho'' doesn't match '3S-1S-younger.same-sex.sibling'.
Skipping example LUKE3.057: MOR, GLS and TXT lengths don't match
Skipping example LUKE3.059: Missing gloss/segmentation
Skipping example LUKE4.029: MOR, GLS and TXT lengths don't match
Skipping example LUKE4.049: MOR, GLS and TXT lengths don't match
Skipping example LUKE4.055: MOR, GLS and TXT lengths don't match
Skipping example LUKE4.058: MOR, GLS and TXT lengths don't match
Skipping example LUKE4.071: MOR, GLS and TXT lengths don't match
Skipping example LUKE4.074: MOR, GLS and TXT lengths don't match
Skipping example LUKE4.080: MOR, GLS and TXT lengths don't match
Skipping example LUKE4.088: MOR, GLS and TXT lengths don't match
Skipping example LUKE4.091: MOR, GLS and TXT lengths don't match
Skipping example LUKE4.095: MOR, GLS and TXT lengths don't match
Skipping example LUKE4.099: MOR, GLS and TXT lengths don't match
Skipping example LUKE4.100: MOR, GLS and TXT lengths don't match
Skipping example LUKE5.013: MOR, GLS and TXT lengths don't match
Skipping example LUKE5.018: MOR, GLS and TXT lengths don't match
Skipping example LUKE5.020: MOR, GLS and TXT lengths don't match
Skipping example LUKE5.025: MOR, GLS and TXT lengths don't match
Skipping example LUKE5.029: MOR, GLS and TXT lengths don't match
Skipping example LUKE5.035: MOR, GLS and TXT lengths don't match
Skipping example LUKE5.048: number of morphemes in 'beeheeteihi-t' doesn't match 'the.creator,.maker.of.all.(beh-eeteihi-.AI)'.
Skipping example LUKE5.050: MOR, GLS and TXT lengths don't match
Skipping example LUKE5.062: MOR, GLS and TXT lengths don't match
Skipping example LUKE5.082: MOR, GLS and TXT lengths don't match
Skipping example LUKE5.086: MOR, GLS and TXT lengths don't match
Skipping example LUKE5.089: number of morphemes in 'woxtoohuu-ho'' doesn't match 'evil-doer-NA.PL'.
Skipping example LUKE5.091: MOR, GLS and TXT lengths don't match
Skipping example LUKE5.094: number of morphemes in 'woxtoohuu-ho'' doesn't match 'evil-doer-NA.PL'.
Skipping example LUKE5.100: MOR, GLS and TXT lengths don't match
Skipping example LUKE5.104: MOR, GLS and TXT lengths don't match
Skipping example LUKE5.110: MOR, GLS and TXT lengths don't match
Skipping example LUKE6.001: MOR, GLS and TXT lengths don't match
Skipping example LUKE6.001: MOR, GLS and TXT lengths don't match
Skipping example LUKE6.010: MOR, GLS and TXT lengths don't match
Skipping example LUKE6.018: MOR, GLS and TXT lengths don't match
Skipping example LUKE6.026: MOR, GLS and TXT lengths don't match
Skipping example LUKE6.036: MOR, GLS and TXT lengths don't match
Skipping example LUKE6.039: number of morphemes in 'hi-noohowoho' doesn't match '3S-younger.same-sex.sibling'.
Skipping example LUKE6.041: number of morphemes in 'hi-noohowoho' doesn't match '3S-younger.same-sex.sibling'.
Skipping example LUKE6.045: MOR, GLS and TXT lengths don't match
Skipping example LUKE6.046: MOR, GLS and TXT lengths don't match
Skipping example LUKE6.047: MOR, GLS and TXT lengths don't match
Skipping example LUKE6.053: MOR, GLS and TXT lengths don't match
Skipping example LUKE6.068: MOR, GLS and TXT lengths don't match
Skipping example LUKE6.070: MOR, GLS and TXT lengths don't match
Skipping example LUKE6.071: MOR, GLS and TXT lengths don't match
Skipping example LUKE6.081: MOR, GLS and TXT lengths don't match
Skipping example LUKE6.083: MOR, GLS and TXT lengths don't match
Skipping example LUKE6.094: MOR, GLS and TXT lengths don't match
Skipping example LUKE6.096: number of morphemes in 'heet-nee'ei'i-tei'yooniini-nee' doesn't match 'FUT-that's.when-chld-like-2PL'.
Skipping example LUKE6.099: MOR, GLS and TXT lengths don't match
Skipping example LUKE6.103: MOR, GLS and TXT lengths don't match
Skipping example LUKE6.105: MOR, GLS and TXT lengths don't match
Skipping example LUKE6.114: number of morphemes in 'he-ehebehe'' doesn't match '2S-younger.same-sex.sibling'.
Skipping example LUKE6.116: number of morphemes in 'he-ehebehe'' doesn't match '2S-younger.same-sex.sibling'.
Skipping example LUKE6.121: MOR, GLS and TXT lengths don't match
Skipping example LUKE6.126: MOR, GLS and TXT lengths don't match
Skipping example LUKE6.138: MOR, GLS and TXT lengths don't match
Skipping example LUKE6.140: MOR, GLS and TXT lengths don't match
Skipping example LUKE7.003: MOR, GLS and TXT lengths don't match
Skipping example LUKE7.004: number of morphemes in 'beexookeenen-no' doesn't match 'important/high-ranking.person-OBV.PL'.
Skipping example LUKE7.012: number of morphemes in 'ciibeh-woxu3ecoo' doesn't match 'PROHIB-have.bad,.mean-spirited.thoughts'.
Skipping example LUKE7.020: MOR, GLS and TXT lengths don't match
Skipping example LUKE7.022: MOR, GLS and TXT lengths don't match
Skipping example LUKE7.034: MOR, GLS and TXT lengths don't match
Skipping example LUKE7.036: MOR, GLS and TXT lengths don't match
Skipping example LUKE7.048: MOR, GLS and TXT lengths don't match
Skipping example LUKE7.060: MOR, GLS and TXT lengths don't match
Skipping example LUKE7.064: MOR, GLS and TXT lengths don't match
Skipping example LUKE7.080: MOR, GLS and TXT lengths don't match
Skipping example LUKE7.085: MOR, GLS and TXT lengths don't match
Skipping example LUKE7.097: MOR, GLS and TXT lengths don't match
Skipping example LUKE7.099: MOR, GLS and TXT lengths don't match
Skipping example LUKE7.100: number of morphemes in 'woo-woxtoohuu-ho'' doesn't match 'REDUP-evil-doer-NA.PL'.
Skipping example LUKE7.109: MOR, GLS and TXT lengths don't match
Skipping example LUKE7.114: MOR, GLS and TXT lengths don't match
Skipping example LUKE7.115: number of morphemes in 'woo-woxtoohuu' doesn't match 'REDUP-evil-doer'.
Skipping example LUKE7.136: MOR, GLS and TXT lengths don't match
Skipping example LUKE7.144: MOR, GLS and TXT lengths don't match
Skipping example LUKE8.013: MOR, GLS and TXT lengths don't match
Skipping example LUKE8.016: MOR, GLS and TXT lengths don't match
Skipping example LUKE8.018: MOR, GLS and TXT lengths don't match
Skipping example LUKE8.028: MOR, GLS and TXT lengths don't match
Skipping example LUKE8.036: MOR, GLS and TXT lengths don't match
Skipping example LUKE8.037: MOR, GLS and TXT lengths don't match
Skipping example LUKE8.039: MOR, GLS and TXT lengths don't match
Skipping example LUKE8.048: MOR, GLS and TXT lengths don't match
Skipping example LUKE8.051: MOR, GLS and TXT lengths don't match
Skipping example LUKE8.054: MOR, GLS and TXT lengths don't match
Skipping example LUKE8.060: MOR, GLS and TXT lengths don't match
Skipping example LUKE8.075: MOR, GLS and TXT lengths don't match
Skipping example LUKE8.081: MOR, GLS and TXT lengths don't match
Skipping example LUKE8.082: MOR, GLS and TXT lengths don't match
Skipping example LUKE8.096: MOR, GLS and TXT lengths don't match
Skipping example LUKE8.110: MOR, GLS and TXT lengths don't match
Skipping example LUKE8.114: MOR, GLS and TXT lengths don't match
Skipping example LUKE8.118: MOR, GLS and TXT lengths don't match
Skipping example LUKE8.150: MOR, GLS and TXT lengths don't match
Skipping example LUKE8.155: MOR, GLS and TXT lengths don't match
Skipping example LUKE8.158: MOR, GLS and TXT lengths don't match
Skipping example LUKE8.161: MOR, GLS and TXT lengths don't match
Skipping example LUKE8.168: MOR, GLS and TXT lengths don't match
Skipping example LUKE8.169: MOR, GLS and TXT lengths don't match
Skipping example LUKE8.170: MOR, GLS and TXT lengths don't match
Skipping example LUKE9.008: MOR, GLS and TXT lengths don't match
Skipping example LUKE9.011: Missing gloss/segmentation
Skipping example LUKE9.017: MOR, GLS and TXT lengths don't match
Skipping example LUKE9.025: MOR, GLS and TXT lengths don't match
Skipping example LUKE9.037: MOR, GLS and TXT lengths don't match
Skipping example LUKE9.037: MOR, GLS and TXT lengths don't match
Skipping example LUKE9.044: MOR, GLS and TXT lengths don't match
Skipping example LUKE9.048: MOR, GLS and TXT lengths don't match
Skipping example LUKE9.052: MOR, GLS and TXT lengths don't match
Skipping example LUKE9.054: MOR, GLS and TXT lengths don't match
Skipping example LUKE9.059: MOR, GLS and TXT lengths don't match
Skipping example LUKE9.075: MOR, GLS and TXT lengths don't match
Skipping example LUKE9.079: MOR, GLS and TXT lengths don't match
Skipping example LUKE9.086: MOR, GLS and TXT lengths don't match
Skipping example LUKE9.089: MOR, GLS and TXT lengths don't match
Skipping example LUKE9.104: MOR, GLS and TXT lengths don't match
Skipping example LUKE9.108: MOR, GLS and TXT lengths don't match
Skipping example LUKE9.109: MOR, GLS and TXT lengths don't match
Skipping example LUKE9.113: MOR, GLS and TXT lengths don't match
Skipping example LUKE9.123: MOR, GLS and TXT lengths don't match
Skipping example LUKE9.127: MOR, GLS and TXT lengths don't match
Skipping example LUKE9.134: MOR, GLS and TXT lengths don't match
Skipping example LUKE9.137: MOR, GLS and TXT lengths don't match
Skipping example LUKE9.159: MOR, GLS and TXT lengths don't match
Skipping example LUKE9.164: MOR, GLS and TXT lengths don't match
Skipping example LUKE9.167: MOR, GLS and TXT lengths don't match
Skipping example Mat14f.002: MOR, GLS and TXT lengths don't match
Skipping example Mat14f.005: MOR, GLS and TXT lengths don't match
Skipping example LP2.006: Missing gloss/segmentation
Skipping example AC2.006: MOR, GLS and TXT lengths don't match
Skipping example AC2.013: MOR, GLS and TXT lengths don't match
Skipping example QA.004: MOR, GLS and TXT lengths don't match
Skipping example QA.016: MOR, GLS and TXT lengths don't match
Skipping example QA.017: MOR, GLS and TXT lengths don't match
Skipping example QA.018: MOR, GLS and TXT lengths don't match
Skipping example QA.024: MOR, GLS and TXT lengths don't match
Skipping example QA.045: MOR, GLS and TXT lengths don't match
Skipping example QA.047: MOR, GLS and TXT lengths don't match
Skipping example QA.069: Missing gloss/segmentation
Skipping example QA.070: MOR, GLS and TXT lengths don't match
Skipping example QA.072: MOR, GLS and TXT lengths don't match
Skipping example QA.077: number of morphemes in 'toh-woxu3ecoo-t' doesn't match 'since-have.bad,.mean-spirited.thoughts-3.S'.
Skipping example QA.086: MOR, GLS and TXT lengths don't match
Skipping example QA.088: MOR, GLS and TXT lengths don't match
Skipping example QA.092: MOR, GLS and TXT lengths don't match
Skipping example QA.102: MOR, GLS and TXT lengths don't match
Skipping example QA.103: MOR, GLS and TXT lengths don't match
Skipping example QA.106: number of morphemes in 'hit-eenetiit' doesn't match '3S--thing.spoken.about'.
Skipping example QA.114: MOR, GLS and TXT lengths don't match
Skipping example QA.116: Missing gloss/segmentation
Skipping example QA.117: number of morphemes in 'toh-beheeteihi-noo' doesn't match 'since-all-powerful/creator-1S'.
Skipping example QA.125: MOR, GLS and TXT lengths don't match
Skipping example ACR.005: Missing gloss/segmentation
Skipping example ACR.006: MOR, GLS and TXT lengths don't match
Skipping example ACR.008: MOR, GLS and TXT lengths don't match
Skipping example ACR.014: MOR, GLS and TXT lengths don't match
Skipping example ACR.015: MOR, GLS and TXT lengths don't match
Skipping example LPR.001: MOR, GLS and TXT lengths don't match
Skipping example LPR.006: MOR, GLS and TXT lengths don't match
Skipping example tlp.001: MOR, GLS and TXT lengths don't match
Skipping example tlp.013: MOR, GLS and TXT lengths don't match
Skipping example Dox.002: MOR, GLS and TXT lengths don't match
Skipping example HM.001: MOR, GLS and TXT lengths don't match
Skipping example HM.002: MOR, GLS and TXT lengths don't match
Skipping example HM.003: MOR, GLS and TXT lengths don't match
Skipping example OFS.001: MOR, GLS and TXT lengths don't match
Skipping example OFS.002: MOR, GLS and TXT lengths don't match
Skipping example OFS.005: MOR, GLS and TXT lengths don't match
Skipping example OFS.008: MOR, GLS and TXT lengths don't match
Skipping example TenCo.008: MOR, GLS and TXT lengths don't match
Skipping example ved.002: MOR, GLS and TXT lengths don't match
Skipping example ved.003: MOR, GLS and TXT lengths don't match
Skipping example ved.005: MOR, GLS and TXT lengths don't match
Skipping example ved.006: MOR, GLS and TXT lengths don't match
Skipping example ved.017: MOR, GLS and TXT lengths don't match
Skipping example ved.020: MOR, GLS and TXT lengths don't match
Skipping example LLP.002: MOR, GLS and TXT lengths don't match
Skipping example LLP.006: MOR, GLS and TXT lengths don't match
Skipping example LLP.008: MOR, GLS and TXT lengths don't match
Skipping example LLP.012: MOR, GLS and TXT lengths don't match
Skipping example LLP.016: MOR, GLS and TXT lengths don't match
Skipping example LLP.023: MOR, GLS and TXT lengths don't match
Skipping example LLP.024: MOR, GLS and TXT lengths don't match
Skipping example LLP.028: MOR, GLS and TXT lengths don't match
Got 48916 glossed sentences
Filtered out 15682 sentences

